* NGSPICE file created from ro_physical_top.ext - technology: sky130A

* Black-box entry subcircuit for sky130_fd_sc_hd__decap_3 abstract view
.subckt sky130_fd_sc_hd__decap_3 VGND VNB VPB VPWR
.ends

* Black-box entry subcircuit for sky130_fd_sc_hd__fill_1 abstract view
.subckt sky130_fd_sc_hd__fill_1 VGND VNB VPB VPWR
.ends

* Black-box entry subcircuit for sky130_fd_sc_hd__tapvpwrvgnd_1 abstract view
.subckt sky130_fd_sc_hd__tapvpwrvgnd_1 VGND VPWR
.ends

* Black-box entry subcircuit for sky130_fd_sc_hd__fill_2 abstract view
.subckt sky130_fd_sc_hd__fill_2 VGND VNB VPB VPWR
.ends

* Black-box entry subcircuit for sky130_fd_sc_hd__nand2_1 abstract view
.subckt sky130_fd_sc_hd__nand2_1 A B VGND VNB VPB VPWR Y
.ends

* Black-box entry subcircuit for sky130_fd_sc_hd__clkdlybuf4s25_1 abstract view
.subckt sky130_fd_sc_hd__clkdlybuf4s25_1 A VGND VNB VPB VPWR X
.ends

* Black-box entry subcircuit for sky130_fd_sc_hd__inv_1 abstract view
.subckt sky130_fd_sc_hd__inv_1 A VGND VNB VPB VPWR Y
.ends

* Black-box entry subcircuit for sky130_fd_sc_hd__buf_2 abstract view
.subckt sky130_fd_sc_hd__buf_2 A VGND VNB VPB VPWR X
.ends

.subckt ro_physical_top VGND VPWR enable ro_out
XFILLER_22_177 VGND VGND VPWR VPWR sky130_fd_sc_hd__decap_3
XFILLER_22_144 VGND VGND VPWR VPWR sky130_fd_sc_hd__decap_3
XFILLER_22_133 VGND VGND VPWR VPWR sky130_fd_sc_hd__decap_3
XFILLER_22_100 VGND VGND VPWR VPWR sky130_fd_sc_hd__decap_3
XFILLER_26_85 VGND VGND VPWR VPWR sky130_fd_sc_hd__decap_3
XFILLER_26_74 VGND VGND VPWR VPWR sky130_fd_sc_hd__decap_3
XFILLER_26_41 VGND VGND VPWR VPWR sky130_fd_sc_hd__decap_3
XFILLER_13_111 VGND VGND VPWR VPWR sky130_fd_sc_hd__fill_1
XFILLER_13_122 VGND VGND VPWR VPWR sky130_fd_sc_hd__decap_3
XTAP_TAPCELL_ROW_15_106 VGND VPWR sky130_fd_sc_hd__tapvpwrvgnd_1
XFILLER_9_137 VGND VGND VPWR VPWR sky130_fd_sc_hd__decap_3
XFILLER_13_155 VGND VGND VPWR VPWR sky130_fd_sc_hd__decap_3
XFILLER_3_45 VGND VGND VPWR VPWR sky130_fd_sc_hd__decap_3
XFILLER_3_12 VGND VGND VPWR VPWR sky130_fd_sc_hd__decap_3
XFILLER_3_78 VGND VGND VPWR VPWR sky130_fd_sc_hd__decap_3
XFILLER_6_118 VGND VGND VPWR VPWR sky130_fd_sc_hd__decap_3
XFILLER_10_103 VGND VGND VPWR VPWR sky130_fd_sc_hd__decap_3
XFILLER_10_136 VGND VGND VPWR VPWR sky130_fd_sc_hd__decap_3
XFILLER_10_147 VGND VGND VPWR VPWR sky130_fd_sc_hd__decap_3
XFILLER_12_21 VGND VGND VPWR VPWR sky130_fd_sc_hd__decap_3
XFILLER_12_32 VGND VGND VPWR VPWR sky130_fd_sc_hd__decap_3
XTAP_TAPCELL_ROW_20_120 VGND VPWR sky130_fd_sc_hd__tapvpwrvgnd_1
XFILLER_12_65 VGND VGND VPWR VPWR sky130_fd_sc_hd__decap_3
XFILLER_5_140 VGND VGND VPWR VPWR sky130_fd_sc_hd__decap_3
XFILLER_5_184 VGND VGND VPWR VPWR sky130_fd_sc_hd__decap_3
XFILLER_23_75 VGND VGND VPWR VPWR sky130_fd_sc_hd__decap_3
XFILLER_23_42 VGND VGND VPWR VPWR sky130_fd_sc_hd__decap_3
XFILLER_2_165 VGND VGND VPWR VPWR sky130_fd_sc_hd__decap_3
XFILLER_2_110 VGND VGND VPWR VPWR sky130_fd_sc_hd__decap_3
XFILLER_0_24 VGND VGND VPWR VPWR sky130_fd_sc_hd__decap_3
XFILLER_0_35 VGND VGND VPWR VPWR sky130_fd_sc_hd__decap_3
XFILLER_0_57 VGND VGND VPWR VPWR sky130_fd_sc_hd__decap_3
XFILLER_17_9 VGND VGND VPWR VPWR sky130_fd_sc_hd__decap_3
XFILLER_9_33 VGND VGND VPWR VPWR sky130_fd_sc_hd__decap_3
XFILLER_9_66 VGND VGND VPWR VPWR sky130_fd_sc_hd__decap_3
XFILLER_9_99 VGND VGND VPWR VPWR sky130_fd_sc_hd__decap_3
XPHY_EDGE_ROW_8_Left_36 VGND VGND VPWR VPWR sky130_fd_sc_hd__decap_3
XFILLER_18_53 VGND VGND VPWR VPWR sky130_fd_sc_hd__decap_3
XFILLER_18_97 VGND VGND VPWR VPWR sky130_fd_sc_hd__decap_3
XFILLER_15_6 VGND VGND VPWR VPWR sky130_fd_sc_hd__decap_3
XFILLER_20_21 VGND VGND VPWR VPWR sky130_fd_sc_hd__decap_3
XFILLER_20_32 VGND VGND VPWR VPWR sky130_fd_sc_hd__decap_3
XFILLER_20_65 VGND VGND VPWR VPWR sky130_fd_sc_hd__decap_3
XFILLER_6_12 VGND VGND VPWR VPWR sky130_fd_sc_hd__decap_3
XFILLER_6_56 VGND VGND VPWR VPWR sky130_fd_sc_hd__decap_3
XFILLER_26_109 VGND VGND VPWR VPWR sky130_fd_sc_hd__decap_3
XFILLER_13_3 VGND VGND VPWR VPWR sky130_fd_sc_hd__decap_3
XFILLER_19_161 VGND VGND VPWR VPWR sky130_fd_sc_hd__decap_3
XFILLER_19_172 VGND VGND VPWR VPWR sky130_fd_sc_hd__decap_3
XFILLER_25_175 VGND VGND VPWR VPWR sky130_fd_sc_hd__decap_3
XFILLER_25_164 VGND VGND VPWR VPWR sky130_fd_sc_hd__decap_3
XFILLER_25_131 VGND VGND VPWR VPWR sky130_fd_sc_hd__decap_3
XFILLER_15_21 VGND VGND VPWR VPWR sky130_fd_sc_hd__decap_3
XFILLER_15_54 VGND VGND VPWR VPWR sky130_fd_sc_hd__fill_2
XFILLER_15_87 VGND VGND VPWR VPWR sky130_fd_sc_hd__decap_3
XTAP_TAPCELL_ROW_18_115 VGND VPWR sky130_fd_sc_hd__tapvpwrvgnd_1
XFILLER_16_153 VGND VGND VPWR VPWR sky130_fd_sc_hd__decap_3
XFILLER_16_186 VGND VGND VPWR VPWR sky130_fd_sc_hd__decap_3
XFILLER_22_189 VGND VGND VPWR VPWR sky130_fd_sc_hd__fill_1
XFILLER_22_156 VGND VGND VPWR VPWR sky130_fd_sc_hd__decap_3
XFILLER_22_112 VGND VGND VPWR VPWR sky130_fd_sc_hd__decap_3
XFILLER_26_97 VGND VGND VPWR VPWR sky130_fd_sc_hd__decap_3
XFILLER_26_53 VGND VGND VPWR VPWR sky130_fd_sc_hd__decap_3
XFILLER_9_105 VGND VGND VPWR VPWR sky130_fd_sc_hd__decap_3
XFILLER_9_116 VGND VGND VPWR VPWR sky130_fd_sc_hd__decap_3
XFILLER_13_134 VGND VGND VPWR VPWR sky130_fd_sc_hd__decap_3
XFILLER_13_167 VGND VGND VPWR VPWR sky130_fd_sc_hd__fill_1
XFILLER_9_149 VGND VGND VPWR VPWR sky130_fd_sc_hd__decap_3
XFILLER_13_178 VGND VGND VPWR VPWR sky130_fd_sc_hd__decap_3
XPHY_EDGE_ROW_21_Left_49 VGND VGND VPWR VPWR sky130_fd_sc_hd__decap_3
XFILLER_3_57 VGND VGND VPWR VPWR sky130_fd_sc_hd__decap_3
XFILLER_3_24 VGND VGND VPWR VPWR sky130_fd_sc_hd__decap_3
XFILLER_8_171 VGND VGND VPWR VPWR sky130_fd_sc_hd__decap_3
XFILLER_10_115 VGND VGND VPWR VPWR sky130_fd_sc_hd__decap_3
XFILLER_10_159 VGND VGND VPWR VPWR sky130_fd_sc_hd__decap_3
XFILLER_12_44 VGND VGND VPWR VPWR sky130_fd_sc_hd__decap_3
XFILLER_12_77 VGND VGND VPWR VPWR sky130_fd_sc_hd__decap_3
XFILLER_12_88 VGND VGND VPWR VPWR sky130_fd_sc_hd__decap_3
XTAP_TAPCELL_ROW_20_121 VGND VPWR sky130_fd_sc_hd__tapvpwrvgnd_1
XFILLER_5_152 VGND VGND VPWR VPWR sky130_fd_sc_hd__decap_3
XPHY_EDGE_ROW_12_Right_12 VGND VGND VPWR VPWR sky130_fd_sc_hd__decap_3
XPHY_EDGE_ROW_21_Right_21 VGND VGND VPWR VPWR sky130_fd_sc_hd__decap_3
XFILLER_23_54 VGND VGND VPWR VPWR sky130_fd_sc_hd__fill_2
XFILLER_23_21 VGND VGND VPWR VPWR sky130_fd_sc_hd__decap_3
Xu_nand u_nand/A u_buf/A VGND VGND VPWR VPWR u_nand/Y sky130_fd_sc_hd__nand2_1
XFILLER_23_87 VGND VGND VPWR VPWR sky130_fd_sc_hd__decap_3
XFILLER_2_122 VGND VGND VPWR VPWR sky130_fd_sc_hd__decap_3
XFILLER_2_177 VGND VGND VPWR VPWR sky130_fd_sc_hd__decap_3
XFILLER_2_144 VGND VGND VPWR VPWR sky130_fd_sc_hd__decap_3
XFILLER_0_47 VGND VGND VPWR VPWR sky130_fd_sc_hd__decap_3
XFILLER_0_69 VGND VGND VPWR VPWR sky130_fd_sc_hd__decap_3
XFILLER_9_12 VGND VGND VPWR VPWR sky130_fd_sc_hd__decap_3
XFILLER_9_45 VGND VGND VPWR VPWR sky130_fd_sc_hd__decap_3
XFILLER_9_78 VGND VGND VPWR VPWR sky130_fd_sc_hd__decap_3
XPHY_EDGE_ROW_24_Left_52 VGND VGND VPWR VPWR sky130_fd_sc_hd__decap_3
XFILLER_18_21 VGND VGND VPWR VPWR sky130_fd_sc_hd__decap_3
XFILLER_18_32 VGND VGND VPWR VPWR sky130_fd_sc_hd__decap_3
XFILLER_18_65 VGND VGND VPWR VPWR sky130_fd_sc_hd__decap_3
XFILLER_20_44 VGND VGND VPWR VPWR sky130_fd_sc_hd__decap_3
XFILLER_20_77 VGND VGND VPWR VPWR sky130_fd_sc_hd__decap_3
XFILLER_20_88 VGND VGND VPWR VPWR sky130_fd_sc_hd__decap_3
XFILLER_6_24 VGND VGND VPWR VPWR sky130_fd_sc_hd__decap_3
XFILLER_6_35 VGND VGND VPWR VPWR sky130_fd_sc_hd__decap_3
XFILLER_6_68 VGND VGND VPWR VPWR sky130_fd_sc_hd__decap_3
XFILLER_19_140 VGND VGND VPWR VPWR sky130_fd_sc_hd__decap_3
XFILLER_19_184 VGND VGND VPWR VPWR sky130_fd_sc_hd__decap_3
XPHY_EDGE_ROW_6_Right_6 VGND VGND VPWR VPWR sky130_fd_sc_hd__decap_3
XFILLER_25_187 VGND VGND VPWR VPWR sky130_fd_sc_hd__decap_3
XFILLER_25_143 VGND VGND VPWR VPWR sky130_fd_sc_hd__decap_3
XFILLER_15_33 VGND VGND VPWR VPWR sky130_fd_sc_hd__decap_3
XFILLER_15_66 VGND VGND VPWR VPWR sky130_fd_sc_hd__decap_3
XFILLER_15_99 VGND VGND VPWR VPWR sky130_fd_sc_hd__decap_3
XFILLER_16_121 VGND VGND VPWR VPWR sky130_fd_sc_hd__decap_3
XFILLER_16_165 VGND VGND VPWR VPWR sky130_fd_sc_hd__decap_3
XFILLER_22_124 VGND VGND VPWR VPWR sky130_fd_sc_hd__decap_3
XFILLER_22_168 VGND VGND VPWR VPWR sky130_fd_sc_hd__decap_3
XFILLER_7_9 VGND VGND VPWR VPWR sky130_fd_sc_hd__decap_3
XFILLER_26_32 VGND VGND VPWR VPWR sky130_fd_sc_hd__decap_3
XFILLER_26_21 VGND VGND VPWR VPWR sky130_fd_sc_hd__decap_3
XFILLER_26_65 VGND VGND VPWR VPWR sky130_fd_sc_hd__decap_3
XTAP_TAPCELL_ROW_23_130 VGND VPWR sky130_fd_sc_hd__tapvpwrvgnd_1
XFILLER_9_128 VGND VGND VPWR VPWR sky130_fd_sc_hd__decap_3
XFILLER_13_102 VGND VGND VPWR VPWR sky130_fd_sc_hd__decap_3
XFILLER_13_113 VGND VGND VPWR VPWR sky130_fd_sc_hd__decap_3
XFILLER_13_146 VGND VGND VPWR VPWR sky130_fd_sc_hd__decap_3
XFILLER_3_69 VGND VGND VPWR VPWR sky130_fd_sc_hd__decap_3
XFILLER_3_36 VGND VGND VPWR VPWR sky130_fd_sc_hd__decap_3
XFILLER_8_150 VGND VGND VPWR VPWR sky130_fd_sc_hd__decap_3
XFILLER_8_183 VGND VGND VPWR VPWR sky130_fd_sc_hd__decap_3
XFILLER_6_109 VGND VGND VPWR VPWR sky130_fd_sc_hd__decap_3
XFILLER_10_127 VGND VGND VPWR VPWR sky130_fd_sc_hd__decap_3
XFILLER_12_12 VGND VGND VPWR VPWR sky130_fd_sc_hd__decap_3
XFILLER_12_56 VGND VGND VPWR VPWR sky130_fd_sc_hd__decap_3
XFILLER_5_6 VGND VGND VPWR VPWR sky130_fd_sc_hd__decap_3
XFILLER_5_131 VGND VGND VPWR VPWR sky130_fd_sc_hd__decap_3
XFILLER_5_164 VGND VGND VPWR VPWR sky130_fd_sc_hd__decap_3
XFILLER_5_175 VGND VGND VPWR VPWR sky130_fd_sc_hd__decap_3
XFILLER_23_66 VGND VGND VPWR VPWR sky130_fd_sc_hd__decap_3
XFILLER_23_33 VGND VGND VPWR VPWR sky130_fd_sc_hd__decap_3
XFILLER_23_99 VGND VGND VPWR VPWR sky130_fd_sc_hd__decap_3
XFILLER_3_3 VGND VGND VPWR VPWR sky130_fd_sc_hd__decap_3
XFILLER_2_156 VGND VGND VPWR VPWR sky130_fd_sc_hd__decap_3
XFILLER_2_134 VGND VGND VPWR VPWR sky130_fd_sc_hd__decap_3
XFILLER_2_101 VGND VGND VPWR VPWR sky130_fd_sc_hd__decap_3
XFILLER_2_189 VGND VGND VPWR VPWR sky130_fd_sc_hd__fill_1
XFILLER_0_15 VGND VGND VPWR VPWR sky130_fd_sc_hd__decap_3
XFILLER_9_24 VGND VGND VPWR VPWR sky130_fd_sc_hd__decap_3
XFILLER_9_57 VGND VGND VPWR VPWR sky130_fd_sc_hd__decap_3
XFILLER_18_44 VGND VGND VPWR VPWR sky130_fd_sc_hd__decap_3
XFILLER_18_77 VGND VGND VPWR VPWR sky130_fd_sc_hd__decap_3
XFILLER_18_88 VGND VGND VPWR VPWR sky130_fd_sc_hd__decap_3
XFILLER_22_9 VGND VGND VPWR VPWR sky130_fd_sc_hd__decap_3
XFILLER_20_12 VGND VGND VPWR VPWR sky130_fd_sc_hd__decap_3
XFILLER_20_56 VGND VGND VPWR VPWR sky130_fd_sc_hd__decap_3
XFILLER_6_47 VGND VGND VPWR VPWR sky130_fd_sc_hd__decap_3
XFILLER_20_6 VGND VGND VPWR VPWR sky130_fd_sc_hd__decap_3
XFILLER_19_152 VGND VGND VPWR VPWR sky130_fd_sc_hd__decap_3
XFILLER_25_155 VGND VGND VPWR VPWR sky130_fd_sc_hd__decap_3
XFILLER_25_122 VGND VGND VPWR VPWR sky130_fd_sc_hd__decap_3
XFILLER_25_111 VGND VGND VPWR VPWR sky130_fd_sc_hd__fill_1
XFILLER_15_12 VGND VGND VPWR VPWR sky130_fd_sc_hd__decap_3
XFILLER_15_45 VGND VGND VPWR VPWR sky130_fd_sc_hd__decap_3
XFILLER_15_78 VGND VGND VPWR VPWR sky130_fd_sc_hd__decap_3
XFILLER_16_100 VGND VGND VPWR VPWR sky130_fd_sc_hd__decap_3
XFILLER_16_133 VGND VGND VPWR VPWR sky130_fd_sc_hd__decap_3
XFILLER_16_144 VGND VGND VPWR VPWR sky130_fd_sc_hd__decap_3
XFILLER_16_177 VGND VGND VPWR VPWR sky130_fd_sc_hd__decap_3
XFILLER_22_147 VGND VGND VPWR VPWR sky130_fd_sc_hd__decap_3
XFILLER_22_136 VGND VGND VPWR VPWR sky130_fd_sc_hd__decap_3
XFILLER_22_103 VGND VGND VPWR VPWR sky130_fd_sc_hd__decap_3
XFILLER_7_90 VGND VGND VPWR VPWR sky130_fd_sc_hd__decap_3
XFILLER_26_44 VGND VGND VPWR VPWR sky130_fd_sc_hd__decap_3
XFILLER_26_88 VGND VGND VPWR VPWR sky130_fd_sc_hd__decap_3
XFILLER_26_77 VGND VGND VPWR VPWR sky130_fd_sc_hd__decap_3
XFILLER_13_125 VGND VGND VPWR VPWR sky130_fd_sc_hd__decap_3
XFILLER_13_158 VGND VGND VPWR VPWR sky130_fd_sc_hd__decap_3
XFILLER_13_169 VGND VGND VPWR VPWR sky130_fd_sc_hd__decap_3
XFILLER_3_48 VGND VGND VPWR VPWR sky130_fd_sc_hd__decap_3
XFILLER_3_15 VGND VGND VPWR VPWR sky130_fd_sc_hd__decap_3
XFILLER_8_162 VGND VGND VPWR VPWR sky130_fd_sc_hd__decap_3
XFILLER_12_180 VGND VGND VPWR VPWR sky130_fd_sc_hd__decap_3
XFILLER_10_106 VGND VGND VPWR VPWR sky130_fd_sc_hd__decap_3
XFILLER_10_139 VGND VGND VPWR VPWR sky130_fd_sc_hd__fill_1
XFILLER_12_24 VGND VGND VPWR VPWR sky130_fd_sc_hd__decap_3
XFILLER_12_35 VGND VGND VPWR VPWR sky130_fd_sc_hd__decap_3
XFILLER_12_68 VGND VGND VPWR VPWR sky130_fd_sc_hd__decap_3
XFILLER_5_143 VGND VGND VPWR VPWR sky130_fd_sc_hd__decap_3
XFILLER_5_187 VGND VGND VPWR VPWR sky130_fd_sc_hd__decap_3
XFILLER_4_91 VGND VGND VPWR VPWR sky130_fd_sc_hd__decap_3
XFILLER_4_80 VGND VGND VPWR VPWR sky130_fd_sc_hd__decap_3
XFILLER_23_78 VGND VGND VPWR VPWR sky130_fd_sc_hd__decap_3
XFILLER_23_45 VGND VGND VPWR VPWR sky130_fd_sc_hd__decap_3
XFILLER_23_12 VGND VGND VPWR VPWR sky130_fd_sc_hd__decap_3
XFILLER_2_168 VGND VGND VPWR VPWR sky130_fd_sc_hd__decap_3
XFILLER_2_113 VGND VGND VPWR VPWR sky130_fd_sc_hd__decap_3
XFILLER_0_27 VGND VGND VPWR VPWR sky130_fd_sc_hd__fill_1
XFILLER_0_38 VGND VGND VPWR VPWR sky130_fd_sc_hd__decap_3
XFILLER_9_36 VGND VGND VPWR VPWR sky130_fd_sc_hd__decap_3
XFILLER_9_69 VGND VGND VPWR VPWR sky130_fd_sc_hd__decap_3
XFILLER_18_12 VGND VGND VPWR VPWR sky130_fd_sc_hd__decap_3
XFILLER_18_56 VGND VGND VPWR VPWR sky130_fd_sc_hd__decap_3
XFILLER_15_9 VGND VGND VPWR VPWR sky130_fd_sc_hd__decap_3
XFILLER_1_81 VGND VGND VPWR VPWR sky130_fd_sc_hd__decap_3
XFILLER_20_24 VGND VGND VPWR VPWR sky130_fd_sc_hd__decap_3
XFILLER_20_35 VGND VGND VPWR VPWR sky130_fd_sc_hd__decap_3
XFILLER_20_68 VGND VGND VPWR VPWR sky130_fd_sc_hd__decap_3
XTAP_TAPCELL_ROW_10_90 VGND VPWR sky130_fd_sc_hd__tapvpwrvgnd_1
XFILLER_6_15 VGND VGND VPWR VPWR sky130_fd_sc_hd__decap_3
XFILLER_6_59 VGND VGND VPWR VPWR sky130_fd_sc_hd__decap_3
XFILLER_13_6 VGND VGND VPWR VPWR sky130_fd_sc_hd__decap_3
XFILLER_19_131 VGND VGND VPWR VPWR sky130_fd_sc_hd__decap_3
XFILLER_19_164 VGND VGND VPWR VPWR sky130_fd_sc_hd__decap_3
XFILLER_19_175 VGND VGND VPWR VPWR sky130_fd_sc_hd__decap_3
XFILLER_25_178 VGND VGND VPWR VPWR sky130_fd_sc_hd__decap_3
XFILLER_25_167 VGND VGND VPWR VPWR sky130_fd_sc_hd__fill_1
XFILLER_25_134 VGND VGND VPWR VPWR sky130_fd_sc_hd__decap_3
XFILLER_15_24 VGND VGND VPWR VPWR sky130_fd_sc_hd__decap_3
XFILLER_15_57 VGND VGND VPWR VPWR sky130_fd_sc_hd__decap_3
XFILLER_16_112 VGND VGND VPWR VPWR sky130_fd_sc_hd__decap_3
XFILLER_16_156 VGND VGND VPWR VPWR sky130_fd_sc_hd__decap_3
XFILLER_16_189 VGND VGND VPWR VPWR sky130_fd_sc_hd__fill_1
XFILLER_11_3 VGND VGND VPWR VPWR sky130_fd_sc_hd__decap_3
XFILLER_22_159 VGND VGND VPWR VPWR sky130_fd_sc_hd__decap_3
XFILLER_22_115 VGND VGND VPWR VPWR sky130_fd_sc_hd__decap_3
XFILLER_26_56 VGND VGND VPWR VPWR sky130_fd_sc_hd__decap_3
XFILLER_26_12 VGND VGND VPWR VPWR sky130_fd_sc_hd__decap_3
XFILLER_9_108 VGND VGND VPWR VPWR sky130_fd_sc_hd__decap_3
XFILLER_9_119 VGND VGND VPWR VPWR sky130_fd_sc_hd__decap_3
XFILLER_13_137 VGND VGND VPWR VPWR sky130_fd_sc_hd__decap_3
XFILLER_21_181 VGND VGND VPWR VPWR sky130_fd_sc_hd__decap_3
XFILLER_3_27 VGND VGND VPWR VPWR sky130_fd_sc_hd__decap_3
XTAP_TAPCELL_ROW_3_70 VGND VPWR sky130_fd_sc_hd__tapvpwrvgnd_1
XFILLER_8_130 VGND VGND VPWR VPWR sky130_fd_sc_hd__decap_3
XFILLER_8_141 VGND VGND VPWR VPWR sky130_fd_sc_hd__decap_3
XFILLER_8_174 VGND VGND VPWR VPWR sky130_fd_sc_hd__decap_3
XFILLER_10_118 VGND VGND VPWR VPWR sky130_fd_sc_hd__decap_3
XFILLER_12_47 VGND VGND VPWR VPWR sky130_fd_sc_hd__decap_3
XFILLER_5_122 VGND VGND VPWR VPWR sky130_fd_sc_hd__decap_3
XFILLER_5_111 VGND VGND VPWR VPWR sky130_fd_sc_hd__fill_1
XFILLER_5_155 VGND VGND VPWR VPWR sky130_fd_sc_hd__decap_3
XFILLER_23_57 VGND VGND VPWR VPWR sky130_fd_sc_hd__decap_3
XFILLER_23_24 VGND VGND VPWR VPWR sky130_fd_sc_hd__decap_3
XFILLER_2_147 VGND VGND VPWR VPWR sky130_fd_sc_hd__decap_3
XFILLER_2_125 VGND VGND VPWR VPWR sky130_fd_sc_hd__decap_3
XFILLER_9_15 VGND VGND VPWR VPWR sky130_fd_sc_hd__decap_3
XFILLER_9_48 VGND VGND VPWR VPWR sky130_fd_sc_hd__decap_3
XFILLER_13_90 VGND VGND VPWR VPWR sky130_fd_sc_hd__decap_3
XTAP_TAPCELL_ROW_0_60 VGND VPWR sky130_fd_sc_hd__tapvpwrvgnd_1
XFILLER_18_24 VGND VGND VPWR VPWR sky130_fd_sc_hd__decap_3
XFILLER_18_35 VGND VGND VPWR VPWR sky130_fd_sc_hd__decap_3
XFILLER_18_68 VGND VGND VPWR VPWR sky130_fd_sc_hd__decap_3
XFILLER_1_60 VGND VGND VPWR VPWR sky130_fd_sc_hd__decap_3
XFILLER_20_47 VGND VGND VPWR VPWR sky130_fd_sc_hd__decap_3
XTAP_TAPCELL_ROW_10_91 VGND VPWR sky130_fd_sc_hd__tapvpwrvgnd_1
XFILLER_6_27 VGND VGND VPWR VPWR sky130_fd_sc_hd__fill_1
XFILLER_6_38 VGND VGND VPWR VPWR sky130_fd_sc_hd__decap_3
XFILLER_10_80 VGND VGND VPWR VPWR sky130_fd_sc_hd__decap_3
XFILLER_10_91 VGND VGND VPWR VPWR sky130_fd_sc_hd__decap_3
XFILLER_19_143 VGND VGND VPWR VPWR sky130_fd_sc_hd__decap_3
XFILLER_19_187 VGND VGND VPWR VPWR sky130_fd_sc_hd__decap_3
XFILLER_25_146 VGND VGND VPWR VPWR sky130_fd_sc_hd__decap_3
XFILLER_25_113 VGND VGND VPWR VPWR sky130_fd_sc_hd__decap_3
XFILLER_25_102 VGND VGND VPWR VPWR sky130_fd_sc_hd__decap_3
XFILLER_15_36 VGND VGND VPWR VPWR sky130_fd_sc_hd__decap_3
XFILLER_15_69 VGND VGND VPWR VPWR sky130_fd_sc_hd__decap_3
XFILLER_16_124 VGND VGND VPWR VPWR sky130_fd_sc_hd__decap_3
XFILLER_16_168 VGND VGND VPWR VPWR sky130_fd_sc_hd__decap_3
XPHY_EDGE_ROW_19_Right_19 VGND VGND VPWR VPWR sky130_fd_sc_hd__decap_3
XFILLER_21_90 VGND VGND VPWR VPWR sky130_fd_sc_hd__decap_3
XFILLER_22_127 VGND VGND VPWR VPWR sky130_fd_sc_hd__decap_3
XFILLER_7_81 VGND VGND VPWR VPWR sky130_fd_sc_hd__decap_3
XPHY_EDGE_ROW_15_Left_43 VGND VGND VPWR VPWR sky130_fd_sc_hd__decap_3
XFILLER_26_68 VGND VGND VPWR VPWR sky130_fd_sc_hd__decap_3
XFILLER_26_35 VGND VGND VPWR VPWR sky130_fd_sc_hd__decap_3
XFILLER_26_24 VGND VGND VPWR VPWR sky130_fd_sc_hd__decap_3
XFILLER_13_105 VGND VGND VPWR VPWR sky130_fd_sc_hd__decap_3
XFILLER_13_116 VGND VGND VPWR VPWR sky130_fd_sc_hd__decap_3
XFILLER_13_149 VGND VGND VPWR VPWR sky130_fd_sc_hd__decap_3
XFILLER_3_39 VGND VGND VPWR VPWR sky130_fd_sc_hd__decap_3
XFILLER_12_171 VGND VGND VPWR VPWR sky130_fd_sc_hd__decap_3
XFILLER_8_153 VGND VGND VPWR VPWR sky130_fd_sc_hd__decap_3
XFILLER_8_186 VGND VGND VPWR VPWR sky130_fd_sc_hd__decap_3
XFILLER_12_15 VGND VGND VPWR VPWR sky130_fd_sc_hd__decap_3
XFILLER_12_59 VGND VGND VPWR VPWR sky130_fd_sc_hd__decap_3
XFILLER_5_9 VGND VGND VPWR VPWR sky130_fd_sc_hd__decap_3
XPHY_EDGE_ROW_0_Left_28 VGND VGND VPWR VPWR sky130_fd_sc_hd__decap_3
XFILLER_5_134 VGND VGND VPWR VPWR sky130_fd_sc_hd__decap_3
XFILLER_5_167 VGND VGND VPWR VPWR sky130_fd_sc_hd__fill_1
XFILLER_5_178 VGND VGND VPWR VPWR sky130_fd_sc_hd__decap_3
XFILLER_4_71 VGND VGND VPWR VPWR sky130_fd_sc_hd__decap_3
XFILLER_23_36 VGND VGND VPWR VPWR sky130_fd_sc_hd__decap_3
XFILLER_23_69 VGND VGND VPWR VPWR sky130_fd_sc_hd__decap_3
XFILLER_2_104 VGND VGND VPWR VPWR sky130_fd_sc_hd__decap_3
XFILLER_3_6 VGND VGND VPWR VPWR sky130_fd_sc_hd__decap_3
XFILLER_2_159 VGND VGND VPWR VPWR sky130_fd_sc_hd__decap_3
XFILLER_2_137 VGND VGND VPWR VPWR sky130_fd_sc_hd__decap_3
XFILLER_0_18 VGND VGND VPWR VPWR sky130_fd_sc_hd__decap_3
XFILLER_0_29 VGND VGND VPWR VPWR sky130_fd_sc_hd__decap_3
XFILLER_9_27 VGND VGND VPWR VPWR sky130_fd_sc_hd__decap_3
XFILLER_1_181 VGND VGND VPWR VPWR sky130_fd_sc_hd__decap_3
XTAP_TAPCELL_ROW_0_61 VGND VPWR sky130_fd_sc_hd__tapvpwrvgnd_1
XFILLER_18_47 VGND VGND VPWR VPWR sky130_fd_sc_hd__decap_3
XFILLER_1_3 VGND VGND VPWR VPWR sky130_fd_sc_hd__decap_3
XPHY_EDGE_ROW_3_Left_31 VGND VGND VPWR VPWR sky130_fd_sc_hd__decap_3
XFILLER_1_72 VGND VGND VPWR VPWR sky130_fd_sc_hd__decap_3
XFILLER_20_15 VGND VGND VPWR VPWR sky130_fd_sc_hd__decap_3
XFILLER_20_59 VGND VGND VPWR VPWR sky130_fd_sc_hd__decap_3
XFILLER_20_9 VGND VGND VPWR VPWR sky130_fd_sc_hd__decap_3
XFILLER_19_90 VGND VGND VPWR VPWR sky130_fd_sc_hd__decap_3
XFILLER_19_111 VGND VGND VPWR VPWR sky130_fd_sc_hd__fill_1
XFILLER_19_122 VGND VGND VPWR VPWR sky130_fd_sc_hd__decap_3
XFILLER_19_155 VGND VGND VPWR VPWR sky130_fd_sc_hd__decap_3
XFILLER_25_169 VGND VGND VPWR VPWR sky130_fd_sc_hd__decap_3
XFILLER_25_158 VGND VGND VPWR VPWR sky130_fd_sc_hd__decap_3
XFILLER_25_125 VGND VGND VPWR VPWR sky130_fd_sc_hd__decap_3
XFILLER_15_15 VGND VGND VPWR VPWR sky130_fd_sc_hd__decap_3
XFILLER_15_48 VGND VGND VPWR VPWR sky130_fd_sc_hd__decap_3
XFILLER_16_103 VGND VGND VPWR VPWR sky130_fd_sc_hd__decap_3
XFILLER_24_180 VGND VGND VPWR VPWR sky130_fd_sc_hd__decap_3
XFILLER_16_136 VGND VGND VPWR VPWR sky130_fd_sc_hd__decap_3
XFILLER_16_147 VGND VGND VPWR VPWR sky130_fd_sc_hd__decap_3
XFILLER_22_106 VGND VGND VPWR VPWR sky130_fd_sc_hd__decap_3
XFILLER_22_139 VGND VGND VPWR VPWR sky130_fd_sc_hd__fill_1
XFILLER_7_60 VGND VGND VPWR VPWR sky130_fd_sc_hd__decap_3
XFILLER_7_93 VGND VGND VPWR VPWR sky130_fd_sc_hd__decap_3
XFILLER_26_47 VGND VGND VPWR VPWR sky130_fd_sc_hd__decap_3
XFILLER_13_128 VGND VGND VPWR VPWR sky130_fd_sc_hd__decap_3
XFILLER_21_161 VGND VGND VPWR VPWR sky130_fd_sc_hd__decap_3
XFILLER_21_172 VGND VGND VPWR VPWR sky130_fd_sc_hd__decap_3
XFILLER_3_18 VGND VGND VPWR VPWR sky130_fd_sc_hd__decap_3
XFILLER_8_121 VGND VGND VPWR VPWR sky130_fd_sc_hd__decap_3
XFILLER_12_150 VGND VGND VPWR VPWR sky130_fd_sc_hd__decap_3
XFILLER_12_183 VGND VGND VPWR VPWR sky130_fd_sc_hd__decap_3
XTAP_TAPCELL_ROW_14_101 VGND VPWR sky130_fd_sc_hd__tapvpwrvgnd_1
XFILLER_16_80 VGND VGND VPWR VPWR sky130_fd_sc_hd__decap_3
XFILLER_16_91 VGND VGND VPWR VPWR sky130_fd_sc_hd__decap_3
XFILLER_8_165 VGND VGND VPWR VPWR sky130_fd_sc_hd__decap_3
XFILLER_10_109 VGND VGND VPWR VPWR sky130_fd_sc_hd__decap_3
XFILLER_12_27 VGND VGND VPWR VPWR sky130_fd_sc_hd__fill_1
XFILLER_12_38 VGND VGND VPWR VPWR sky130_fd_sc_hd__decap_3
XFILLER_5_113 VGND VGND VPWR VPWR sky130_fd_sc_hd__decap_3
XFILLER_5_102 VGND VGND VPWR VPWR sky130_fd_sc_hd__decap_3
XFILLER_5_146 VGND VGND VPWR VPWR sky130_fd_sc_hd__decap_3
XFILLER_4_94 VGND VGND VPWR VPWR sky130_fd_sc_hd__decap_3
XFILLER_4_83 VGND VGND VPWR VPWR sky130_fd_sc_hd__fill_1
XFILLER_4_50 VGND VGND VPWR VPWR sky130_fd_sc_hd__decap_3
XFILLER_23_48 VGND VGND VPWR VPWR sky130_fd_sc_hd__decap_3
XFILLER_23_15 VGND VGND VPWR VPWR sky130_fd_sc_hd__decap_3
XFILLER_2_116 VGND VGND VPWR VPWR sky130_fd_sc_hd__decap_3
XFILLER_9_39 VGND VGND VPWR VPWR sky130_fd_sc_hd__decap_3
XFILLER_13_81 VGND VGND VPWR VPWR sky130_fd_sc_hd__decap_3
XFILLER_18_15 VGND VGND VPWR VPWR sky130_fd_sc_hd__decap_3
XFILLER_18_59 VGND VGND VPWR VPWR sky130_fd_sc_hd__decap_3
XFILLER_24_91 VGND VGND VPWR VPWR sky130_fd_sc_hd__decap_3
XFILLER_24_80 VGND VGND VPWR VPWR sky130_fd_sc_hd__decap_3
XFILLER_27_3 VGND VGND VPWR VPWR sky130_fd_sc_hd__decap_3
XFILLER_1_51 VGND VGND VPWR VPWR sky130_fd_sc_hd__decap_3
XFILLER_1_84 VGND VGND VPWR VPWR sky130_fd_sc_hd__decap_3
XFILLER_20_27 VGND VGND VPWR VPWR sky130_fd_sc_hd__fill_1
XFILLER_20_38 VGND VGND VPWR VPWR sky130_fd_sc_hd__decap_3
XFILLER_6_18 VGND VGND VPWR VPWR sky130_fd_sc_hd__decap_3
XFILLER_6_29 VGND VGND VPWR VPWR sky130_fd_sc_hd__decap_3
XFILLER_10_71 VGND VGND VPWR VPWR sky130_fd_sc_hd__decap_3
XFILLER_13_9 VGND VGND VPWR VPWR sky130_fd_sc_hd__decap_3
XFILLER_19_134 VGND VGND VPWR VPWR sky130_fd_sc_hd__decap_3
XFILLER_19_167 VGND VGND VPWR VPWR sky130_fd_sc_hd__fill_1
XFILLER_19_178 VGND VGND VPWR VPWR sky130_fd_sc_hd__decap_3
XFILLER_25_137 VGND VGND VPWR VPWR sky130_fd_sc_hd__decap_3
XFILLER_15_27 VGND VGND VPWR VPWR sky130_fd_sc_hd__decap_3
XPHY_EDGE_ROW_1_Right_1 VGND VGND VPWR VPWR sky130_fd_sc_hd__decap_3
XFILLER_16_115 VGND VGND VPWR VPWR sky130_fd_sc_hd__decap_3
XFILLER_16_159 VGND VGND VPWR VPWR sky130_fd_sc_hd__decap_3
XFILLER_21_81 VGND VGND VPWR VPWR sky130_fd_sc_hd__decap_3
XFILLER_11_6 VGND VGND VPWR VPWR sky130_fd_sc_hd__decap_3
XFILLER_22_118 VGND VGND VPWR VPWR sky130_fd_sc_hd__decap_3
XTAP_TAPCELL_ROW_17_110 VGND VPWR sky130_fd_sc_hd__tapvpwrvgnd_1
XFILLER_7_72 VGND VGND VPWR VPWR sky130_fd_sc_hd__decap_3
XFILLER_15_181 VGND VGND VPWR VPWR sky130_fd_sc_hd__decap_3
XFILLER_26_15 VGND VGND VPWR VPWR sky130_fd_sc_hd__decap_3
XFILLER_26_59 VGND VGND VPWR VPWR sky130_fd_sc_hd__decap_3
XFILLER_21_140 VGND VGND VPWR VPWR sky130_fd_sc_hd__decap_3
XFILLER_21_184 VGND VGND VPWR VPWR sky130_fd_sc_hd__decap_3
XTAP_TAPCELL_ROW_14_102 VGND VPWR sky130_fd_sc_hd__tapvpwrvgnd_1
XFILLER_8_100 VGND VGND VPWR VPWR sky130_fd_sc_hd__decap_3
XFILLER_8_133 VGND VGND VPWR VPWR sky130_fd_sc_hd__decap_3
XFILLER_8_144 VGND VGND VPWR VPWR sky130_fd_sc_hd__decap_3
XFILLER_8_177 VGND VGND VPWR VPWR sky130_fd_sc_hd__decap_3
XFILLER_12_162 VGND VGND VPWR VPWR sky130_fd_sc_hd__decap_3
XFILLER_5_125 VGND VGND VPWR VPWR sky130_fd_sc_hd__decap_3
XFILLER_5_158 VGND VGND VPWR VPWR sky130_fd_sc_hd__decap_3
XFILLER_5_169 VGND VGND VPWR VPWR sky130_fd_sc_hd__decap_3
XFILLER_27_91 VGND VGND VPWR VPWR sky130_fd_sc_hd__decap_3
XFILLER_4_180 VGND VGND VPWR VPWR sky130_fd_sc_hd__decap_3
XFILLER_4_62 VGND VGND VPWR VPWR sky130_fd_sc_hd__decap_3
XFILLER_23_27 VGND VGND VPWR VPWR sky130_fd_sc_hd__decap_3
XFILLER_2_128 VGND VGND VPWR VPWR sky130_fd_sc_hd__decap_3
XFILLER_9_18 VGND VGND VPWR VPWR sky130_fd_sc_hd__decap_3
XFILLER_13_60 VGND VGND VPWR VPWR sky130_fd_sc_hd__decap_3
XFILLER_13_93 VGND VGND VPWR VPWR sky130_fd_sc_hd__decap_3
XFILLER_1_172 VGND VGND VPWR VPWR sky130_fd_sc_hd__decap_3
XFILLER_1_161 VGND VGND VPWR VPWR sky130_fd_sc_hd__decap_3
XFILLER_18_27 VGND VGND VPWR VPWR sky130_fd_sc_hd__fill_1
XFILLER_18_38 VGND VGND VPWR VPWR sky130_fd_sc_hd__decap_3
XFILLER_1_30 VGND VGND VPWR VPWR sky130_fd_sc_hd__decap_3
XFILLER_1_63 VGND VGND VPWR VPWR sky130_fd_sc_hd__decap_3
XFILLER_10_50 VGND VGND VPWR VPWR sky130_fd_sc_hd__decap_3
XFILLER_10_83 VGND VGND VPWR VPWR sky130_fd_sc_hd__fill_1
XFILLER_10_94 VGND VGND VPWR VPWR sky130_fd_sc_hd__decap_3
XFILLER_19_102 VGND VGND VPWR VPWR sky130_fd_sc_hd__decap_3
XFILLER_19_113 VGND VGND VPWR VPWR sky130_fd_sc_hd__decap_3
XFILLER_19_81 VGND VGND VPWR VPWR sky130_fd_sc_hd__decap_3
XFILLER_19_146 VGND VGND VPWR VPWR sky130_fd_sc_hd__decap_3
XFILLER_25_105 VGND VGND VPWR VPWR sky130_fd_sc_hd__decap_3
XFILLER_25_149 VGND VGND VPWR VPWR sky130_fd_sc_hd__decap_3
XFILLER_25_116 VGND VGND VPWR VPWR sky130_fd_sc_hd__decap_3
XFILLER_15_39 VGND VGND VPWR VPWR sky130_fd_sc_hd__decap_3
XFILLER_16_127 VGND VGND VPWR VPWR sky130_fd_sc_hd__decap_3
XFILLER_24_171 VGND VGND VPWR VPWR sky130_fd_sc_hd__decap_3
XFILLER_21_60 VGND VGND VPWR VPWR sky130_fd_sc_hd__decap_3
XFILLER_21_93 VGND VGND VPWR VPWR sky130_fd_sc_hd__decap_3
XTAP_TAPCELL_ROW_17_111 VGND VPWR sky130_fd_sc_hd__tapvpwrvgnd_1
XFILLER_7_51 VGND VGND VPWR VPWR sky130_fd_sc_hd__decap_3
XFILLER_7_84 VGND VGND VPWR VPWR sky130_fd_sc_hd__decap_3
XPHY_EDGE_ROW_15_Right_15 VGND VGND VPWR VPWR sky130_fd_sc_hd__decap_3
XFILLER_26_38 VGND VGND VPWR VPWR sky130_fd_sc_hd__decap_3
XFILLER_26_27 VGND VGND VPWR VPWR sky130_fd_sc_hd__fill_1
XPHY_EDGE_ROW_24_Right_24 VGND VGND VPWR VPWR sky130_fd_sc_hd__decap_3
XFILLER_13_108 VGND VGND VPWR VPWR sky130_fd_sc_hd__decap_3
XFILLER_13_119 VGND VGND VPWR VPWR sky130_fd_sc_hd__decap_3
XFILLER_21_152 VGND VGND VPWR VPWR sky130_fd_sc_hd__decap_3
XTAP_TAPCELL_ROW_14_103 VGND VPWR sky130_fd_sc_hd__tapvpwrvgnd_1
XFILLER_16_71 VGND VGND VPWR VPWR sky130_fd_sc_hd__decap_3
XFILLER_8_112 VGND VGND VPWR VPWR sky130_fd_sc_hd__decap_3
XFILLER_8_156 VGND VGND VPWR VPWR sky130_fd_sc_hd__decap_3
XFILLER_8_189 VGND VGND VPWR VPWR sky130_fd_sc_hd__fill_1
XFILLER_12_130 VGND VGND VPWR VPWR sky130_fd_sc_hd__decap_3
XFILLER_12_141 VGND VGND VPWR VPWR sky130_fd_sc_hd__decap_3
XFILLER_12_174 VGND VGND VPWR VPWR sky130_fd_sc_hd__decap_3
XPHY_EDGE_ROW_19_Left_47 VGND VGND VPWR VPWR sky130_fd_sc_hd__decap_3
XFILLER_12_18 VGND VGND VPWR VPWR sky130_fd_sc_hd__decap_3
XFILLER_12_29 VGND VGND VPWR VPWR sky130_fd_sc_hd__decap_3
XFILLER_5_137 VGND VGND VPWR VPWR sky130_fd_sc_hd__decap_3
XFILLER_27_81 VGND VGND VPWR VPWR sky130_fd_sc_hd__decap_3
XFILLER_4_85 VGND VGND VPWR VPWR sky130_fd_sc_hd__decap_3
XFILLER_4_74 VGND VGND VPWR VPWR sky130_fd_sc_hd__decap_3
XFILLER_4_41 VGND VGND VPWR VPWR sky130_fd_sc_hd__decap_3
XFILLER_23_39 VGND VGND VPWR VPWR sky130_fd_sc_hd__decap_3
XFILLER_3_9 VGND VGND VPWR VPWR sky130_fd_sc_hd__decap_3
XFILLER_2_107 VGND VGND VPWR VPWR sky130_fd_sc_hd__decap_3
XFILLER_13_72 VGND VGND VPWR VPWR sky130_fd_sc_hd__decap_3
XFILLER_1_184 VGND VGND VPWR VPWR sky130_fd_sc_hd__decap_3
XFILLER_1_140 VGND VGND VPWR VPWR sky130_fd_sc_hd__decap_3
XFILLER_1_6 VGND VGND VPWR VPWR sky130_fd_sc_hd__decap_3
XFILLER_24_71 VGND VGND VPWR VPWR sky130_fd_sc_hd__decap_3
XFILLER_1_42 VGND VGND VPWR VPWR sky130_fd_sc_hd__decap_3
XFILLER_1_75 VGND VGND VPWR VPWR sky130_fd_sc_hd__decap_3
XFILLER_20_18 VGND VGND VPWR VPWR sky130_fd_sc_hd__decap_3
XFILLER_20_29 VGND VGND VPWR VPWR sky130_fd_sc_hd__decap_3
XPHY_EDGE_ROW_7_Left_35 VGND VGND VPWR VPWR sky130_fd_sc_hd__decap_3
XFILLER_10_62 VGND VGND VPWR VPWR sky130_fd_sc_hd__decap_3
XFILLER_19_60 VGND VGND VPWR VPWR sky130_fd_sc_hd__decap_3
XFILLER_19_125 VGND VGND VPWR VPWR sky130_fd_sc_hd__decap_3
XFILLER_19_93 VGND VGND VPWR VPWR sky130_fd_sc_hd__decap_3
XFILLER_19_158 VGND VGND VPWR VPWR sky130_fd_sc_hd__decap_3
XFILLER_19_169 VGND VGND VPWR VPWR sky130_fd_sc_hd__decap_3
XFILLER_25_128 VGND VGND VPWR VPWR sky130_fd_sc_hd__decap_3
XFILLER_15_18 VGND VGND VPWR VPWR sky130_fd_sc_hd__decap_3
XFILLER_18_180 VGND VGND VPWR VPWR sky130_fd_sc_hd__decap_3
XFILLER_24_150 VGND VGND VPWR VPWR sky130_fd_sc_hd__decap_3
XFILLER_16_106 VGND VGND VPWR VPWR sky130_fd_sc_hd__decap_3
XFILLER_16_139 VGND VGND VPWR VPWR sky130_fd_sc_hd__fill_1
XFILLER_24_183 VGND VGND VPWR VPWR sky130_fd_sc_hd__decap_3
XFILLER_21_72 VGND VGND VPWR VPWR sky130_fd_sc_hd__decap_3
XFILLER_22_109 VGND VGND VPWR VPWR sky130_fd_sc_hd__decap_3
XFILLER_15_161 VGND VGND VPWR VPWR sky130_fd_sc_hd__decap_3
XFILLER_15_172 VGND VGND VPWR VPWR sky130_fd_sc_hd__decap_3
XTAP_TAPCELL_ROW_17_112 VGND VPWR sky130_fd_sc_hd__tapvpwrvgnd_1
XFILLER_7_30 VGND VGND VPWR VPWR sky130_fd_sc_hd__decap_3
XFILLER_7_63 VGND VGND VPWR VPWR sky130_fd_sc_hd__decap_3
XFILLER_7_96 VGND VGND VPWR VPWR sky130_fd_sc_hd__decap_3
XFILLER_21_131 VGND VGND VPWR VPWR sky130_fd_sc_hd__decap_3
XFILLER_21_164 VGND VGND VPWR VPWR sky130_fd_sc_hd__decap_3
XFILLER_21_175 VGND VGND VPWR VPWR sky130_fd_sc_hd__decap_3