* NGSPICE file created from delay_chain_physical_top.ext - technology: sky130A

.subckt sky130_fd_sc_hd__decap_3 VPWR VGND VPB VNB
X0 VPWR VGND VPWR VPB sky130_fd_pr__pfet_01v8_hvt ad=0.2262 pd=2.26 as=0.4524 ps=4.52 w=0.87 l=0.59
X1 VGND VPWR VGND VNB sky130_fd_pr__nfet_01v8 ad=0.143 pd=1.62 as=0.286 ps=3.24 w=0.55 l=0.59
C0 VGND VPWR 0.353f
C1 VPB VPWR 0.06352f
C2 VPB VGND 0.08022f
C3 VPWR VNB 0.40327f
C4 VGND VNB 0.36155f
C5 VPB VNB 0.33898f
.ends

.subckt sky130_fd_sc_hd__buf_2 VPWR VGND X A VPB VNB a_27_47#
X0 VPWR a_27_47# X VPB sky130_fd_pr__pfet_01v8_hvt ad=0.265 pd=2.53 as=0.135 ps=1.27 w=1 l=0.15
X1 X a_27_47# VPWR VPB sky130_fd_pr__pfet_01v8_hvt ad=0.135 pd=1.27 as=0.149 ps=1.325 w=1 l=0.15
X2 VPWR A a_27_47# VPB sky130_fd_pr__pfet_01v8_hvt ad=0.149 pd=1.325 as=0.1664 ps=1.8 w=0.64 l=0.15
X3 X a_27_47# VGND VNB sky130_fd_pr__nfet_01v8 ad=0.08775 pd=0.92 as=0.097 ps=0.975 w=0.65 l=0.15
X4 VGND a_27_47# X VNB sky130_fd_pr__nfet_01v8 ad=0.17225 pd=1.83 as=0.08775 ps=0.92 w=0.65 l=0.15
X5 VGND A a_27_47# VNB sky130_fd_pr__nfet_01v8 ad=0.097 pd=0.975 as=0.1092 ps=1.36 w=0.42 l=0.15
C0 VPB VGND 0.00642f
C1 a_27_47# VGND 0.13074f
C2 VPWR A 0.02211f
C3 a_27_47# VPB 0.07868f
C4 X VGND 0.11137f
C5 VPB X 0.00443f
C6 a_27_47# X 0.14884f
C7 VPWR VGND 0.05175f
C8 VPB VPWR 0.058f
C9 a_27_47# VPWR 0.15768f
C10 VGND A 0.01989f
C11 VPB A 0.06973f
C12 a_27_47# A 0.16236f
C13 VPWR X 0.1691f
C14 X A 0.00306f
C15 VGND VNB 0.28216f
C16 X VNB 0.0215f
C17 VPWR VNB 0.24432f
C18 A VNB 0.15431f
C19 VPB VNB 0.42757f
C20 a_27_47# VNB 0.2125f
.ends

.subckt sky130_fd_sc_hd__clkdlybuf4s25_1 VNB VPB VPWR VGND A X a_244_47# a_355_47#
+ a_27_47#
X0 a_244_47# a_27_47# VPWR VPB sky130_fd_pr__pfet_01v8_hvt ad=0.2173 pd=2.17 as=0.19265 ps=1.415 w=0.82 l=0.25
X1 VPWR a_244_47# a_355_47# VPB sky130_fd_pr__pfet_01v8_hvt ad=0.2726 pd=1.61 as=0.2173 ps=2.17 w=0.82 l=0.25
X2 X a_355_47# VPWR VPB sky130_fd_pr__pfet_01v8_hvt ad=0.495 pd=2.99 as=0.2726 ps=1.61 w=1 l=0.15
X3 VPWR A a_27_47# VPB sky130_fd_pr__pfet_01v8_hvt ad=0.19265 pd=1.415 as=0.27 ps=2.54 w=1 l=0.15
X4 VGND A a_27_47# VNB sky130_fd_pr__nfet_01v8 ad=0.1228 pd=1.065 as=0.1134 ps=1.38 w=0.42 l=0.15
X5 VGND a_244_47# a_355_47# VNB sky130_fd_pr__nfet_01v8 ad=0.1856 pd=1.26 as=0.17225 ps=1.83 w=0.65 l=0.25
X6 X a_355_47# VGND VNB sky130_fd_pr__nfet_01v8 ad=0.2079 pd=1.83 as=0.1856 ps=1.26 w=0.42 l=0.15
X7 a_244_47# a_27_47# VGND VNB sky130_fd_pr__nfet_01v8 ad=0.17225 pd=1.83 as=0.1228 ps=1.065 w=0.65 l=0.25
C0 a_355_47# A 0.00204f
C1 a_244_47# A 0.00176f
C2 a_27_47# A 0.17892f
C3 VPB X 0.01394f
C4 a_244_47# a_355_47# 0.34134f
C5 a_27_47# a_355_47# 0
C6 a_27_47# a_244_47# 0.11296f
C7 VPB A 0.03819f
C8 VGND VPWR 0.07516f
C9 a_355_47# VPB 0.0494f
C10 a_244_47# VPB 0.09475f
C11 a_27_47# VPB 0.07658f
C12 X VPWR 0.13117f
C13 X VGND 0.10651f
C14 A VPWR 0.0192f
C15 A VGND 0.01777f
C16 a_355_47# VPWR 0.17543f
C17 a_355_47# VGND 0.15079f
C18 a_244_47# VPWR 0.13909f
C19 a_244_47# VGND 0.1171f
C20 a_27_47# VPWR 0.18008f
C21 a_27_47# VGND 0.1493f
C22 VPB VPWR 0.09181f
C23 VPB VGND 0.00815f
C24 a_355_47# X 0.08925f
C25 a_244_47# X 0.00177f
C26 VGND VNB 0.43338f
C27 X VNB 0.10191f
C28 VPWR VNB 0.35021f
C29 A VNB 0.13453f
C30 VPB VNB 0.78196f
C31 a_355_47# VNB 0.12797f
C32 a_244_47# VNB 0.13382f
C33 a_27_47# VNB 0.17294f
.ends

.subckt delay_chain_physical_top VGND VPWR in out
XFILLER_22_177 VPWR VGND VPWR VGND sky130_fd_sc_hd__decap_3
XFILLER_22_144 VPWR VGND VPWR VGND sky130_fd_sc_hd__decap_3
XFILLER_22_133 VPWR VGND VPWR VGND sky130_fd_sc_hd__decap_3
XFILLER_22_100 VPWR VGND VPWR VGND sky130_fd_sc_hd__decap_3
XFILLER_26_85 VPWR VGND VPWR VGND sky130_fd_sc_hd__decap_3
XFILLER_26_74 VPWR VGND VPWR VGND sky130_fd_sc_hd__decap_3
XFILLER_26_41 VPWR VGND VPWR VGND sky130_fd_sc_hd__decap_3
XFILLER_13_100 VPWR VGND VPWR VGND sky130_fd_sc_hd__decap_3
XFILLER_13_122 VPWR VGND VPWR VGND sky130_fd_sc_hd__decap_3
XFILLER_9_137 VPWR VGND VPWR VGND sky130_fd_sc_hd__decap_3
XFILLER_13_155 VPWR VGND VPWR VGND sky130_fd_sc_hd__decap_3
XFILLER_3_45 VPWR VGND VPWR VGND sky130_fd_sc_hd__decap_3
XFILLER_3_12 VPWR VGND VPWR VGND sky130_fd_sc_hd__decap_3
XFILLER_3_78 VPWR VGND VPWR VGND sky130_fd_sc_hd__decap_3
XFILLER_6_118 VPWR VGND VPWR VGND sky130_fd_sc_hd__decap_3
XFILLER_10_103 VPWR VGND VPWR VGND sky130_fd_sc_hd__decap_3
XFILLER_10_136 VPWR VGND VPWR VGND sky130_fd_sc_hd__decap_3
XFILLER_10_147 VPWR VGND VPWR VGND sky130_fd_sc_hd__decap_3
XFILLER_12_21 VPWR VGND VPWR VGND sky130_fd_sc_hd__decap_3
XFILLER_12_32 VPWR VGND VPWR VGND sky130_fd_sc_hd__decap_3
XFILLER_12_65 VPWR VGND VPWR VGND sky130_fd_sc_hd__decap_3
XFILLER_5_140 VPWR VGND VPWR VGND sky130_fd_sc_hd__decap_3
XFILLER_5_184 VPWR VGND VPWR VGND sky130_fd_sc_hd__decap_3
XFILLER_23_75 VPWR VGND VPWR VGND sky130_fd_sc_hd__decap_3
XFILLER_23_42 VPWR VGND VPWR VGND sky130_fd_sc_hd__decap_3
XFILLER_2_165 VPWR VGND VPWR VGND sky130_fd_sc_hd__decap_3
XFILLER_2_121 VPWR VGND VPWR VGND sky130_fd_sc_hd__decap_3
XFILLER_0_24 VPWR VGND VPWR VGND sky130_fd_sc_hd__decap_3
XFILLER_0_35 VPWR VGND VPWR VGND sky130_fd_sc_hd__decap_3
XFILLER_0_57 VPWR VGND VPWR VGND sky130_fd_sc_hd__decap_3
XFILLER_17_9 VPWR VGND VPWR VGND sky130_fd_sc_hd__decap_3
XFILLER_9_33 VPWR VGND VPWR VGND sky130_fd_sc_hd__decap_3
XFILLER_9_66 VPWR VGND VPWR VGND sky130_fd_sc_hd__decap_3
XFILLER_9_99 VPWR VGND VPWR VGND sky130_fd_sc_hd__decap_3
XPHY_EDGE_ROW_8_Left_36 VPWR VGND VPWR VGND sky130_fd_sc_hd__decap_3
XFILLER_18_53 VPWR VGND VPWR VGND sky130_fd_sc_hd__decap_3
XFILLER_18_97 VPWR VGND VPWR VGND sky130_fd_sc_hd__decap_3
XFILLER_15_6 VPWR VGND VPWR VGND sky130_fd_sc_hd__decap_3
XFILLER_20_21 VPWR VGND VPWR VGND sky130_fd_sc_hd__decap_3
XFILLER_20_32 VPWR VGND VPWR VGND sky130_fd_sc_hd__decap_3
XFILLER_20_65 VPWR VGND VPWR VGND sky130_fd_sc_hd__decap_3
XFILLER_6_12 VPWR VGND VPWR VGND sky130_fd_sc_hd__decap_3
XFILLER_6_56 VPWR VGND VPWR VGND sky130_fd_sc_hd__decap_3
XFILLER_26_109 VPWR VGND VPWR VGND sky130_fd_sc_hd__decap_3
XFILLER_13_3 VPWR VGND VPWR VGND sky130_fd_sc_hd__decap_3
XFILLER_19_161 VPWR VGND VPWR VGND sky130_fd_sc_hd__decap_3
XFILLER_19_172 VPWR VGND VPWR VGND sky130_fd_sc_hd__decap_3
XFILLER_25_175 VPWR VGND VPWR VGND sky130_fd_sc_hd__decap_3
XFILLER_25_164 VPWR VGND VPWR VGND sky130_fd_sc_hd__decap_3
XFILLER_25_131 VPWR VGND VPWR VGND sky130_fd_sc_hd__decap_3
XFILLER_15_21 VPWR VGND VPWR VGND sky130_fd_sc_hd__decap_3
XFILLER_15_87 VPWR VGND VPWR VGND sky130_fd_sc_hd__decap_3
XFILLER_16_153 VPWR VGND VPWR VGND sky130_fd_sc_hd__decap_3
XFILLER_16_186 VPWR VGND VPWR VGND sky130_fd_sc_hd__decap_3
XFILLER_22_156 VPWR VGND VPWR VGND sky130_fd_sc_hd__decap_3
XFILLER_22_112 VPWR VGND VPWR VGND sky130_fd_sc_hd__decap_3
XFILLER_26_97 VPWR VGND VPWR VGND sky130_fd_sc_hd__decap_3
XFILLER_26_53 VPWR VGND VPWR VGND sky130_fd_sc_hd__decap_3
XFILLER_9_105 VPWR VGND VPWR VGND sky130_fd_sc_hd__decap_3
XFILLER_9_116 VPWR VGND VPWR VGND sky130_fd_sc_hd__decap_3
XFILLER_13_134 VPWR VGND VPWR VGND sky130_fd_sc_hd__decap_3
XFILLER_9_149 VPWR VGND VPWR VGND sky130_fd_sc_hd__decap_3
XFILLER_13_178 VPWR VGND VPWR VGND sky130_fd_sc_hd__decap_3
XPHY_EDGE_ROW_21_Left_49 VPWR VGND VPWR VGND sky130_fd_sc_hd__decap_3
XFILLER_3_57 VPWR VGND VPWR VGND sky130_fd_sc_hd__decap_3
XFILLER_3_24 VPWR VGND VPWR VGND sky130_fd_sc_hd__decap_3
XFILLER_8_171 VPWR VGND VPWR VGND sky130_fd_sc_hd__decap_3
XFILLER_10_115 VPWR VGND VPWR VGND sky130_fd_sc_hd__decap_3
XFILLER_10_159 VPWR VGND VPWR VGND sky130_fd_sc_hd__decap_3
XFILLER_12_44 VPWR VGND VPWR VGND sky130_fd_sc_hd__decap_3
XFILLER_12_77 VPWR VGND VPWR VGND sky130_fd_sc_hd__decap_3
XFILLER_12_88 VPWR VGND VPWR VGND sky130_fd_sc_hd__decap_3
XFILLER_5_152 VPWR VGND VPWR VGND sky130_fd_sc_hd__decap_3
XPHY_EDGE_ROW_12_Right_12 VPWR VGND VPWR VGND sky130_fd_sc_hd__decap_3
XPHY_EDGE_ROW_21_Right_21 VPWR VGND VPWR VGND sky130_fd_sc_hd__decap_3
XFILLER_23_21 VPWR VGND VPWR VGND sky130_fd_sc_hd__decap_3
XFILLER_23_87 VPWR VGND VPWR VGND sky130_fd_sc_hd__decap_3
XFILLER_2_100 VPWR VGND VPWR VGND sky130_fd_sc_hd__decap_3
XFILLER_2_177 VPWR VGND VPWR VGND sky130_fd_sc_hd__decap_3
XFILLER_2_144 VPWR VGND VPWR VGND sky130_fd_sc_hd__decap_3
XFILLER_2_133 VPWR VGND VPWR VGND sky130_fd_sc_hd__decap_3
XFILLER_0_47 VPWR VGND VPWR VGND sky130_fd_sc_hd__decap_3
XFILLER_0_69 VPWR VGND VPWR VGND sky130_fd_sc_hd__decap_3
XFILLER_9_12 VPWR VGND VPWR VGND sky130_fd_sc_hd__decap_3
XFILLER_9_45 VPWR VGND VPWR VGND sky130_fd_sc_hd__decap_3
XFILLER_9_78 VPWR VGND VPWR VGND sky130_fd_sc_hd__decap_3
XPHY_EDGE_ROW_24_Left_52 VPWR VGND VPWR VGND sky130_fd_sc_hd__decap_3
XFILLER_18_21 VPWR VGND VPWR VGND sky130_fd_sc_hd__decap_3
XFILLER_18_32 VPWR VGND VPWR VGND sky130_fd_sc_hd__decap_3
XFILLER_18_65 VPWR VGND VPWR VGND sky130_fd_sc_hd__decap_3
XFILLER_1_90 VPWR VGND VPWR VGND sky130_fd_sc_hd__decap_3
XFILLER_20_44 VPWR VGND VPWR VGND sky130_fd_sc_hd__decap_3
XFILLER_20_77 VPWR VGND VPWR VGND sky130_fd_sc_hd__decap_3
XFILLER_20_88 VPWR VGND VPWR VGND sky130_fd_sc_hd__decap_3
XFILLER_6_24 VPWR VGND VPWR VGND sky130_fd_sc_hd__decap_3
XFILLER_6_35 VPWR VGND VPWR VGND sky130_fd_sc_hd__decap_3
XFILLER_6_68 VPWR VGND VPWR VGND sky130_fd_sc_hd__decap_3
XFILLER_19_140 VPWR VGND VPWR VGND sky130_fd_sc_hd__decap_3
XFILLER_19_184 VPWR VGND VPWR VGND sky130_fd_sc_hd__decap_3
XPHY_EDGE_ROW_6_Right_6 VPWR VGND VPWR VGND sky130_fd_sc_hd__decap_3
XFILLER_25_187 VPWR VGND VPWR VGND sky130_fd_sc_hd__decap_3
XFILLER_25_143 VPWR VGND VPWR VGND sky130_fd_sc_hd__decap_3
XFILLER_15_33 VPWR VGND VPWR VGND sky130_fd_sc_hd__decap_3
XFILLER_15_66 VPWR VGND VPWR VGND sky130_fd_sc_hd__decap_3
XFILLER_15_99 VPWR VGND VPWR VGND sky130_fd_sc_hd__decap_3
XFILLER_16_121 VPWR VGND VPWR VGND sky130_fd_sc_hd__decap_3
XFILLER_16_165 VPWR VGND VPWR VGND sky130_fd_sc_hd__decap_3
XFILLER_22_124 VPWR VGND VPWR VGND sky130_fd_sc_hd__decap_3
XFILLER_22_168 VPWR VGND VPWR VGND sky130_fd_sc_hd__decap_3
XFILLER_7_9 VPWR VGND VPWR VGND sky130_fd_sc_hd__decap_3
XFILLER_26_32 VPWR VGND VPWR VGND sky130_fd_sc_hd__decap_3
XFILLER_26_21 VPWR VGND VPWR VGND sky130_fd_sc_hd__decap_3
XFILLER_26_65 VPWR VGND VPWR VGND sky130_fd_sc_hd__decap_3
XFILLER_9_128 VPWR VGND VPWR VGND sky130_fd_sc_hd__decap_3
XFILLER_13_113 VPWR VGND VPWR VGND sky130_fd_sc_hd__decap_3
XFILLER_13_146 VPWR VGND VPWR VGND sky130_fd_sc_hd__decap_3
XFILLER_3_69 VPWR VGND VPWR VGND sky130_fd_sc_hd__decap_3
XFILLER_3_36 VPWR VGND VPWR VGND sky130_fd_sc_hd__decap_3
XFILLER_8_150 VPWR VGND VPWR VGND sky130_fd_sc_hd__decap_3
XFILLER_8_183 VPWR VGND VPWR VGND sky130_fd_sc_hd__decap_3
XFILLER_6_109 VPWR VGND VPWR VGND sky130_fd_sc_hd__decap_3
XFILLER_10_127 VPWR VGND VPWR VGND sky130_fd_sc_hd__decap_3
XFILLER_12_12 VPWR VGND VPWR VGND sky130_fd_sc_hd__decap_3
XFILLER_12_56 VPWR VGND VPWR VGND sky130_fd_sc_hd__decap_3
XFILLER_5_6 VPWR VGND VPWR VGND sky130_fd_sc_hd__decap_3
XFILLER_5_131 VPWR VGND VPWR VGND sky130_fd_sc_hd__decap_3
XFILLER_5_164 VPWR VGND VPWR VGND sky130_fd_sc_hd__decap_3
XFILLER_5_175 VPWR VGND VPWR VGND sky130_fd_sc_hd__decap_3
XFILLER_23_66 VPWR VGND VPWR VGND sky130_fd_sc_hd__decap_3
XFILLER_23_33 VPWR VGND VPWR VGND sky130_fd_sc_hd__decap_3
XFILLER_23_99 VPWR VGND VPWR VGND sky130_fd_sc_hd__decap_3
XFILLER_3_3 VPWR VGND VPWR VGND sky130_fd_sc_hd__decap_3
XFILLER_2_156 VPWR VGND VPWR VGND sky130_fd_sc_hd__decap_3
XFILLER_2_112 VPWR VGND VPWR VGND sky130_fd_sc_hd__decap_3
XFILLER_0_15 VPWR VGND VPWR VGND sky130_fd_sc_hd__decap_3
XFILLER_9_24 VPWR VGND VPWR VGND sky130_fd_sc_hd__decap_3
XFILLER_9_57 VPWR VGND VPWR VGND sky130_fd_sc_hd__decap_3
XFILLER_18_44 VPWR VGND VPWR VGND sky130_fd_sc_hd__decap_3
XFILLER_18_77 VPWR VGND VPWR VGND sky130_fd_sc_hd__decap_3
XFILLER_18_88 VPWR VGND VPWR VGND sky130_fd_sc_hd__decap_3
XFILLER_22_9 VPWR VGND VPWR VGND sky130_fd_sc_hd__decap_3
XFILLER_20_12 VPWR VGND VPWR VGND sky130_fd_sc_hd__decap_3
XFILLER_20_56 VPWR VGND VPWR VGND sky130_fd_sc_hd__decap_3
XFILLER_6_47 VPWR VGND VPWR VGND sky130_fd_sc_hd__decap_3
XFILLER_20_6 VPWR VGND VPWR VGND sky130_fd_sc_hd__decap_3
XFILLER_19_152 VPWR VGND VPWR VGND sky130_fd_sc_hd__decap_3
XFILLER_25_155 VPWR VGND VPWR VGND sky130_fd_sc_hd__decap_3
XFILLER_25_122 VPWR VGND VPWR VGND sky130_fd_sc_hd__decap_3
XFILLER_15_12 VPWR VGND VPWR VGND sky130_fd_sc_hd__decap_3
XFILLER_15_45 VPWR VGND VPWR VGND sky130_fd_sc_hd__decap_3
XFILLER_15_78 VPWR VGND VPWR VGND sky130_fd_sc_hd__decap_3
XFILLER_16_100 VPWR VGND VPWR VGND sky130_fd_sc_hd__decap_3
XFILLER_16_133 VPWR VGND VPWR VGND sky130_fd_sc_hd__decap_3
XFILLER_16_144 VPWR VGND VPWR VGND sky130_fd_sc_hd__decap_3
XFILLER_16_177 VPWR VGND VPWR VGND sky130_fd_sc_hd__decap_3
XFILLER_22_147 VPWR VGND VPWR VGND sky130_fd_sc_hd__decap_3
XFILLER_22_136 VPWR VGND VPWR VGND sky130_fd_sc_hd__decap_3
XFILLER_22_103 VPWR VGND VPWR VGND sky130_fd_sc_hd__decap_3
XFILLER_7_90 VPWR VGND VPWR VGND sky130_fd_sc_hd__decap_3
XFILLER_26_44 VPWR VGND VPWR VGND sky130_fd_sc_hd__decap_3
XFILLER_26_88 VPWR VGND VPWR VGND sky130_fd_sc_hd__decap_3
XFILLER_26_77 VPWR VGND VPWR VGND sky130_fd_sc_hd__decap_3
XFILLER_13_103 VPWR VGND VPWR VGND sky130_fd_sc_hd__decap_3
XFILLER_13_125 VPWR VGND VPWR VGND sky130_fd_sc_hd__decap_3
XFILLER_13_158 VPWR VGND VPWR VGND sky130_fd_sc_hd__decap_3
XFILLER_13_169 VPWR VGND VPWR VGND sky130_fd_sc_hd__decap_3
XFILLER_3_48 VPWR VGND VPWR VGND sky130_fd_sc_hd__decap_3
XFILLER_3_15 VPWR VGND VPWR VGND sky130_fd_sc_hd__decap_3
XFILLER_8_162 VPWR VGND VPWR VGND sky130_fd_sc_hd__decap_3
XFILLER_12_180 VPWR VGND VPWR VGND sky130_fd_sc_hd__decap_3
XFILLER_10_106 VPWR VGND VPWR VGND sky130_fd_sc_hd__decap_3
XFILLER_12_24 VPWR VGND VPWR VGND sky130_fd_sc_hd__decap_3
XFILLER_12_35 VPWR VGND VPWR VGND sky130_fd_sc_hd__decap_3
XFILLER_12_68 VPWR VGND VPWR VGND sky130_fd_sc_hd__decap_3
Xu0 VPWR VGND u1/A in VPWR VGND u0/a_27_47# sky130_fd_sc_hd__buf_2
XFILLER_5_143 VPWR VGND VPWR VGND sky130_fd_sc_hd__decap_3
XFILLER_5_187 VPWR VGND VPWR VGND sky130_fd_sc_hd__decap_3
XFILLER_4_91 VPWR VGND VPWR VGND sky130_fd_sc_hd__decap_3
XFILLER_4_80 VPWR VGND VPWR VGND sky130_fd_sc_hd__decap_3
XFILLER_23_78 VPWR VGND VPWR VGND sky130_fd_sc_hd__decap_3
XFILLER_23_45 VPWR VGND VPWR VGND sky130_fd_sc_hd__decap_3
XFILLER_23_12 VPWR VGND VPWR VGND sky130_fd_sc_hd__decap_3
XFILLER_2_168 VPWR VGND VPWR VGND sky130_fd_sc_hd__decap_3
XFILLER_2_124 VPWR VGND VPWR VGND sky130_fd_sc_hd__decap_3
XFILLER_0_38 VPWR VGND VPWR VGND sky130_fd_sc_hd__decap_3
XFILLER_9_36 VPWR VGND VPWR VGND sky130_fd_sc_hd__decap_3
XFILLER_9_69 VPWR VGND VPWR VGND sky130_fd_sc_hd__decap_3
XFILLER_18_12 VPWR VGND VPWR VGND sky130_fd_sc_hd__decap_3
XFILLER_18_56 VPWR VGND VPWR VGND sky130_fd_sc_hd__decap_3
XFILLER_15_9 VPWR VGND VPWR VGND sky130_fd_sc_hd__decap_3
XFILLER_1_81 VPWR VGND VPWR VGND sky130_fd_sc_hd__decap_3
XFILLER_20_24 VPWR VGND VPWR VGND sky130_fd_sc_hd__decap_3
XFILLER_20_35 VPWR VGND VPWR VGND sky130_fd_sc_hd__decap_3
XFILLER_20_68 VPWR VGND VPWR VGND sky130_fd_sc_hd__decap_3
XFILLER_6_15 VPWR VGND VPWR VGND sky130_fd_sc_hd__decap_3
XFILLER_6_59 VPWR VGND VPWR VGND sky130_fd_sc_hd__decap_3
XFILLER_13_6 VPWR VGND VPWR VGND sky130_fd_sc_hd__decap_3
XFILLER_19_131 VPWR VGND VPWR VGND sky130_fd_sc_hd__decap_3
XFILLER_19_164 VPWR VGND VPWR VGND sky130_fd_sc_hd__decap_3
XFILLER_19_175 VPWR VGND VPWR VGND sky130_fd_sc_hd__decap_3
XFILLER_25_178 VPWR VGND VPWR VGND sky130_fd_sc_hd__decap_3
XFILLER_25_134 VPWR VGND VPWR VGND sky130_fd_sc_hd__decap_3
XFILLER_15_24 VPWR VGND VPWR VGND sky130_fd_sc_hd__decap_3
XFILLER_15_57 VPWR VGND VPWR VGND sky130_fd_sc_hd__decap_3
XFILLER_16_112 VPWR VGND VPWR VGND sky130_fd_sc_hd__decap_3
XFILLER_16_156 VPWR VGND VPWR VGND sky130_fd_sc_hd__decap_3
XFILLER_11_3 VPWR VGND VPWR VGND sky130_fd_sc_hd__decap_3
XFILLER_22_159 VPWR VGND VPWR VGND sky130_fd_sc_hd__decap_3
XFILLER_22_115 VPWR VGND VPWR VGND sky130_fd_sc_hd__decap_3
XFILLER_26_56 VPWR VGND VPWR VGND sky130_fd_sc_hd__decap_3
XFILLER_26_12 VPWR VGND VPWR VGND sky130_fd_sc_hd__decap_3
XFILLER_9_108 VPWR VGND VPWR VGND sky130_fd_sc_hd__decap_3
XFILLER_9_119 VPWR VGND VPWR VGND sky130_fd_sc_hd__decap_3
XFILLER_13_137 VPWR VGND VPWR VGND sky130_fd_sc_hd__decap_3
XFILLER_21_181 VPWR VGND VPWR VGND sky130_fd_sc_hd__decap_3
XFILLER_3_27 VPWR VGND VPWR VGND sky130_fd_sc_hd__decap_3
XFILLER_8_130 VPWR VGND VPWR VGND sky130_fd_sc_hd__decap_3
XFILLER_8_141 VPWR VGND VPWR VGND sky130_fd_sc_hd__decap_3
XFILLER_8_174 VPWR VGND VPWR VGND sky130_fd_sc_hd__decap_3
XFILLER_10_118 VPWR VGND VPWR VGND sky130_fd_sc_hd__decap_3
XFILLER_12_47 VPWR VGND VPWR VGND sky130_fd_sc_hd__decap_3
XFILLER_5_122 VPWR VGND VPWR VGND sky130_fd_sc_hd__decap_3
XFILLER_5_155 VPWR VGND VPWR VGND sky130_fd_sc_hd__decap_3
Xu1 VPWR VGND u2/A u1/A VPWR VGND u1/a_27_47# sky130_fd_sc_hd__buf_2
XFILLER_23_57 VPWR VGND VPWR VGND sky130_fd_sc_hd__decap_3
XFILLER_23_24 VPWR VGND VPWR VGND sky130_fd_sc_hd__decap_3
XFILLER_2_147 VPWR VGND VPWR VGND sky130_fd_sc_hd__decap_3
XFILLER_2_136 VPWR VGND VPWR VGND sky130_fd_sc_hd__decap_3
XFILLER_2_103 VPWR VGND VPWR VGND sky130_fd_sc_hd__decap_3
XFILLER_9_15 VPWR VGND VPWR VGND sky130_fd_sc_hd__decap_3
XFILLER_9_48 VPWR VGND VPWR VGND sky130_fd_sc_hd__decap_3
XFILLER_18_24 VPWR VGND VPWR VGND sky130_fd_sc_hd__decap_3
XFILLER_18_35 VPWR VGND VPWR VGND sky130_fd_sc_hd__decap_3
XFILLER_18_68 VPWR VGND VPWR VGND sky130_fd_sc_hd__decap_3
XFILLER_1_60 VPWR VGND VPWR VGND sky130_fd_sc_hd__decap_3
XFILLER_1_93 VPWR VGND VPWR VGND sky130_fd_sc_hd__decap_3
XFILLER_20_47 VPWR VGND VPWR VGND sky130_fd_sc_hd__decap_3
XFILLER_6_38 VPWR VGND VPWR VGND sky130_fd_sc_hd__decap_3
XFILLER_10_80 VPWR VGND VPWR VGND sky130_fd_sc_hd__decap_3
XFILLER_10_91 VPWR VGND VPWR VGND sky130_fd_sc_hd__decap_3
XFILLER_19_143 VPWR VGND VPWR VGND sky130_fd_sc_hd__decap_3
XFILLER_19_187 VPWR VGND VPWR VGND sky130_fd_sc_hd__decap_3
XFILLER_25_146 VPWR VGND VPWR VGND sky130_fd_sc_hd__decap_3
XFILLER_25_113 VPWR VGND VPWR VGND sky130_fd_sc_hd__decap_3
XFILLER_25_102 VPWR VGND VPWR VGND sky130_fd_sc_hd__decap_3
XFILLER_15_36 VPWR VGND VPWR VGND sky130_fd_sc_hd__decap_3
XFILLER_15_69 VPWR VGND VPWR VGND sky130_fd_sc_hd__decap_3
XFILLER_16_124 VPWR VGND VPWR VGND sky130_fd_sc_hd__decap_3
XFILLER_16_168 VPWR VGND VPWR VGND sky130_fd_sc_hd__decap_3
XPHY_EDGE_ROW_19_Right_19 VPWR VGND VPWR VGND sky130_fd_sc_hd__decap_3
XFILLER_21_90 VPWR VGND VPWR VGND sky130_fd_sc_hd__decap_3
XFILLER_22_127 VPWR VGND VPWR VGND sky130_fd_sc_hd__decap_3
XFILLER_7_81 VPWR VGND VPWR VGND sky130_fd_sc_hd__decap_3
XPHY_EDGE_ROW_15_Left_43 VPWR VGND VPWR VGND sky130_fd_sc_hd__decap_3
XFILLER_26_68 VPWR VGND VPWR VGND sky130_fd_sc_hd__decap_3
XFILLER_26_35 VPWR VGND VPWR VGND sky130_fd_sc_hd__decap_3
XFILLER_26_24 VPWR VGND VPWR VGND sky130_fd_sc_hd__decap_3
XFILLER_13_116 VPWR VGND VPWR VGND sky130_fd_sc_hd__decap_3
XFILLER_13_149 VPWR VGND VPWR VGND sky130_fd_sc_hd__decap_3
XFILLER_3_39 VPWR VGND VPWR VGND sky130_fd_sc_hd__decap_3
XFILLER_12_171 VPWR VGND VPWR VGND sky130_fd_sc_hd__decap_3
XFILLER_8_153 VPWR VGND VPWR VGND sky130_fd_sc_hd__decap_3
XFILLER_8_186 VPWR VGND VPWR VGND sky130_fd_sc_hd__decap_3
XFILLER_12_15 VPWR VGND VPWR VGND sky130_fd_sc_hd__decap_3
XFILLER_12_59 VPWR VGND VPWR VGND sky130_fd_sc_hd__decap_3
XFILLER_5_9 VPWR VGND VPWR VGND sky130_fd_sc_hd__decap_3
XPHY_EDGE_ROW_0_Left_28 VPWR VGND VPWR VGND sky130_fd_sc_hd__decap_3
XFILLER_5_134 VPWR VGND VPWR VGND sky130_fd_sc_hd__decap_3
XFILLER_5_178 VPWR VGND VPWR VGND sky130_fd_sc_hd__decap_3
Xu2 VPWR VGND u3/A u2/A VPWR VGND u2/a_27_47# sky130_fd_sc_hd__buf_2
XFILLER_4_71 VPWR VGND VPWR VGND sky130_fd_sc_hd__decap_3
XFILLER_23_36 VPWR VGND VPWR VGND sky130_fd_sc_hd__decap_3
XFILLER_23_69 VPWR VGND VPWR VGND sky130_fd_sc_hd__decap_3
XFILLER_3_6 VPWR VGND VPWR VGND sky130_fd_sc_hd__decap_3
XFILLER_2_159 VPWR VGND VPWR VGND sky130_fd_sc_hd__decap_3
XFILLER_2_115 VPWR VGND VPWR VGND sky130_fd_sc_hd__decap_3
XFILLER_0_18 VPWR VGND VPWR VGND sky130_fd_sc_hd__decap_3
XFILLER_0_29 VPWR VGND VPWR VGND sky130_fd_sc_hd__decap_3
XFILLER_9_27 VPWR VGND VPWR VGND sky130_fd_sc_hd__decap_3
XFILLER_13_91 VPWR VGND VPWR VGND sky130_fd_sc_hd__decap_3
XFILLER_1_181 VPWR VGND VPWR VGND sky130_fd_sc_hd__decap_3
XFILLER_18_47 VPWR VGND VPWR VGND sky130_fd_sc_hd__decap_3
XFILLER_1_3 VPWR VGND VPWR VGND sky130_fd_sc_hd__decap_3
XPHY_EDGE_ROW_3_Left_31 VPWR VGND VPWR VGND sky130_fd_sc_hd__decap_3
XFILLER_1_72 VPWR VGND VPWR VGND sky130_fd_sc_hd__decap_3
XFILLER_20_15 VPWR VGND VPWR VGND sky130_fd_sc_hd__decap_3
XFILLER_20_59 VPWR VGND VPWR VGND sky130_fd_sc_hd__decap_3
XFILLER_20_9 VPWR VGND VPWR VGND sky130_fd_sc_hd__decap_3
XFILLER_19_90 VPWR VGND VPWR VGND sky130_fd_sc_hd__decap_3
XFILLER_19_122 VPWR VGND VPWR VGND sky130_fd_sc_hd__decap_3
XFILLER_19_155 VPWR VGND VPWR VGND sky130_fd_sc_hd__decap_3
XFILLER_25_169 VPWR VGND VPWR VGND sky130_fd_sc_hd__decap_3
XFILLER_25_158 VPWR VGND VPWR VGND sky130_fd_sc_hd__decap_3
XFILLER_25_125 VPWR VGND VPWR VGND sky130_fd_sc_hd__decap_3
XFILLER_15_15 VPWR VGND VPWR VGND sky130_fd_sc_hd__decap_3
XFILLER_15_48 VPWR VGND VPWR VGND sky130_fd_sc_hd__decap_3
XFILLER_16_103 VPWR VGND VPWR VGND sky130_fd_sc_hd__decap_3
XFILLER_24_180 VPWR VGND VPWR VGND sky130_fd_sc_hd__decap_3
XFILLER_16_136 VPWR VGND VPWR VGND sky130_fd_sc_hd__decap_3
XFILLER_16_147 VPWR VGND VPWR VGND sky130_fd_sc_hd__decap_3
XFILLER_22_106 VPWR VGND VPWR VGND sky130_fd_sc_hd__decap_3
XFILLER_7_60 VPWR VGND VPWR VGND sky130_fd_sc_hd__decap_3
XFILLER_7_93 VPWR VGND VPWR VGND sky130_fd_sc_hd__decap_3
XFILLER_26_47 VPWR VGND VPWR VGND sky130_fd_sc_hd__decap_3
XFILLER_13_106 VPWR VGND VPWR VGND sky130_fd_sc_hd__decap_3
XFILLER_13_128 VPWR VGND VPWR VGND sky130_fd_sc_hd__decap_3
XFILLER_21_161 VPWR VGND VPWR VGND sky130_fd_sc_hd__decap_3
XFILLER_21_172 VPWR VGND VPWR VGND sky130_fd_sc_hd__decap_3
XFILLER_3_18 VPWR VGND VPWR VGND sky130_fd_sc_hd__decap_3
XFILLER_8_121 VPWR VGND VPWR VGND sky130_fd_sc_hd__decap_3
XFILLER_12_150 VPWR VGND VPWR VGND sky130_fd_sc_hd__decap_3
XFILLER_12_183 VPWR VGND VPWR VGND sky130_fd_sc_hd__decap_3
XFILLER_16_80 VPWR VGND VPWR VGND sky130_fd_sc_hd__decap_3
XFILLER_16_91 VPWR VGND VPWR VGND sky130_fd_sc_hd__decap_3
XFILLER_8_165 VPWR VGND VPWR VGND sky130_fd_sc_hd__decap_3
XFILLER_10_109 VPWR VGND VPWR VGND sky130_fd_sc_hd__decap_3
XFILLER_12_38 VPWR VGND VPWR VGND sky130_fd_sc_hd__decap_3
Xu3 VPWR VGND u4/A u3/A VPWR VGND u3/a_27_47# sky130_fd_sc_hd__buf_2
XFILLER_5_113 VPWR VGND VPWR VGND sky130_fd_sc_hd__decap_3
XFILLER_5_102 VPWR VGND VPWR VGND sky130_fd_sc_hd__decap_3
XFILLER_5_146 VPWR VGND VPWR VGND sky130_fd_sc_hd__decap_3
XFILLER_4_94 VPWR VGND VPWR VGND sky130_fd_sc_hd__decap_3
XFILLER_4_50 VPWR VGND VPWR VGND sky130_fd_sc_hd__decap_3
XFILLER_23_48 VPWR VGND VPWR VGND sky130_fd_sc_hd__decap_3
XFILLER_23_15 VPWR VGND VPWR VGND sky130_fd_sc_hd__decap_3
XFILLER_2_127 VPWR VGND VPWR VGND sky130_fd_sc_hd__decap_3
XFILLER_9_39 VPWR VGND VPWR VGND sky130_fd_sc_hd__decap_3
XFILLER_18_15 VPWR VGND VPWR VGND sky130_fd_sc_hd__decap_3
XFILLER_18_59 VPWR VGND VPWR VGND sky130_fd_sc_hd__decap_3
XFILLER_24_91 VPWR VGND VPWR VGND sky130_fd_sc_hd__decap_3
XFILLER_24_80 VPWR VGND VPWR VGND sky130_fd_sc_hd__decap_3
XFILLER_27_3 VPWR VGND VPWR VGND sky130_fd_sc_hd__decap_3
XFILLER_1_51 VPWR VGND VPWR VGND sky130_fd_sc_hd__decap_3
XFILLER_1_84 VPWR VGND VPWR VGND sky130_fd_sc_hd__decap_3
XFILLER_20_38 VPWR VGND VPWR VGND sky130_fd_sc_hd__decap_3
XFILLER_6_18 VPWR VGND VPWR VGND sky130_fd_sc_hd__decap_3
XFILLER_6_29 VPWR VGND VPWR VGND sky130_fd_sc_hd__decap_3
XFILLER_10_71 VPWR VGND VPWR VGND sky130_fd_sc_hd__decap_3
XFILLER_13_9 VPWR VGND VPWR VGND sky130_fd_sc_hd__decap_3
XFILLER_19_134 VPWR VGND VPWR VGND sky130_fd_sc_hd__decap_3
XFILLER_19_178 VPWR VGND VPWR VGND sky130_fd_sc_hd__decap_3
XFILLER_25_137 VPWR VGND VPWR VGND sky130_fd_sc_hd__decap_3
XFILLER_15_27 VPWR VGND VPWR VGND sky130_fd_sc_hd__decap_3
XPHY_EDGE_ROW_1_Right_1 VPWR VGND VPWR VGND sky130_fd_sc_hd__decap_3
XFILLER_16_115 VPWR VGND VPWR VGND sky130_fd_sc_hd__decap_3
XFILLER_16_159 VPWR VGND VPWR VGND sky130_fd_sc_hd__decap_3
XFILLER_21_81 VPWR VGND VPWR VGND sky130_fd_sc_hd__decap_3
XFILLER_11_6 VPWR VGND VPWR VGND sky130_fd_sc_hd__decap_3
XFILLER_22_118 VPWR VGND VPWR VGND sky130_fd_sc_hd__decap_3
XFILLER_7_72 VPWR VGND VPWR VGND sky130_fd_sc_hd__decap_3
XFILLER_26_15 VPWR VGND VPWR VGND sky130_fd_sc_hd__decap_3
XFILLER_26_59 VPWR VGND VPWR VGND sky130_fd_sc_hd__decap_3
XFILLER_21_140 VPWR VGND VPWR VGND sky130_fd_sc_hd__decap_3
XFILLER_21_184 VPWR VGND VPWR VGND sky130_fd_sc_hd__decap_3
XFILLER_8_100 VPWR VGND VPWR VGND sky130_fd_sc_hd__decap_3
XFILLER_8_133 VPWR VGND VPWR VGND sky130_fd_sc_hd__decap_3
XFILLER_8_144 VPWR VGND VPWR VGND sky130_fd_sc_hd__decap_3
XFILLER_8_177 VPWR VGND VPWR VGND sky130_fd_sc_hd__decap_3
XFILLER_12_162 VPWR VGND VPWR VGND sky130_fd_sc_hd__decap_3
Xu4 VPWR VGND u5/A u4/A VPWR VGND u4/a_27_47# sky130_fd_sc_hd__buf_2
XFILLER_5_125 VPWR VGND VPWR VGND sky130_fd_sc_hd__decap_3
XFILLER_5_158 VPWR VGND VPWR VGND sky130_fd_sc_hd__decap_3
XFILLER_5_169 VPWR VGND VPWR VGND sky130_fd_sc_hd__decap_3
XFILLER_27_91 VPWR VGND VPWR VGND sky130_fd_sc_hd__decap_3
XFILLER_4_180 VPWR VGND VPWR VGND sky130_fd_sc_hd__decap_3
XFILLER_4_62 VPWR VGND VPWR VGND sky130_fd_sc_hd__decap_3
XFILLER_23_27 VPWR VGND VPWR VGND sky130_fd_sc_hd__decap_3
XFILLER_2_106 VPWR VGND VPWR VGND sky130_fd_sc_hd__decap_3
XFILLER_9_18 VPWR VGND VPWR VGND sky130_fd_sc_hd__decap_3
XFILLER_13_60 VPWR VGND VPWR VGND sky130_fd_sc_hd__decap_3
XFILLER_1_172 VPWR VGND VPWR VGND sky130_fd_sc_hd__decap_3
XFILLER_1_161 VPWR VGND VPWR VGND sky130_fd_sc_hd__decap_3
XFILLER_18_38 VPWR VGND VPWR VGND sky130_fd_sc_hd__decap_3
XFILLER_1_30 VPWR VGND VPWR VGND sky130_fd_sc_hd__decap_3
XFILLER_1_63 VPWR VGND VPWR VGND sky130_fd_sc_hd__decap_3
XFILLER_1_96 VPWR VGND VPWR VGND sky130_fd_sc_hd__decap_3
XFILLER_10_50 VPWR VGND VPWR VGND sky130_fd_sc_hd__decap_3
XFILLER_10_94 VPWR VGND VPWR VGND sky130_fd_sc_hd__decap_3
XFILLER_19_102 VPWR VGND VPWR VGND sky130_fd_sc_hd__decap_3
XFILLER_19_113 VPWR VGND VPWR VGND sky130_fd_sc_hd__decap_3
XFILLER_19_81 VPWR VGND VPWR VGND sky130_fd_sc_hd__decap_3
XFILLER_19_146 VPWR VGND VPWR VGND sky130_fd_sc_hd__decap_3
XFILLER_25_105 VPWR VGND VPWR VGND sky130_fd_sc_hd__decap_3
XFILLER_25_149 VPWR VGND VPWR VGND sky130_fd_sc_hd__decap_3
XFILLER_25_116 VPWR VGND VPWR VGND sky130_fd_sc_hd__decap_3
XFILLER_15_39 VPWR VGND VPWR VGND sky130_fd_sc_hd__decap_3
XFILLER_16_127 VPWR VGND VPWR VGND sky130_fd_sc_hd__decap_3
XFILLER_24_171 VPWR VGND VPWR VGND sky130_fd_sc_hd__decap_3
XFILLER_21_60 VPWR VGND VPWR VGND sky130_fd_sc_hd__decap_3
XFILLER_21_93 VPWR VGND VPWR VGND sky130_fd_sc_hd__decap_3
XFILLER_7_51 VPWR VGND VPWR VGND sky130_fd_sc_hd__decap_3
XFILLER_7_84 VPWR VGND VPWR VGND sky130_fd_sc_hd__decap_3
XPHY_EDGE_ROW_15_Right_15 VPWR VGND VPWR VGND sky130_fd_sc_hd__decap_3
XFILLER_26_38 VPWR VGND VPWR VGND sky130_fd_sc_hd__decap_3
XPHY_EDGE_ROW_24_Right_24 VPWR VGND VPWR VGND sky130_fd_sc_hd__decap_3
XFILLER_13_119 VPWR VGND VPWR VGND sky130_fd_sc_hd__decap_3
XFILLER_21_152 VPWR VGND VPWR VGND sky130_fd_sc_hd__decap_3
XFILLER_16_71 VPWR VGND VPWR VGND sky130_fd_sc_hd__decap_3
XFILLER_8_112 VPWR VGND VPWR VGND sky130_fd_sc_hd__decap_3
XFILLER_8_156 VPWR VGND VPWR VGND sky130_fd_sc_hd__decap_3
XFILLER_12_130 VPWR VGND VPWR VGND sky130_fd_sc_hd__decap_3
XFILLER_12_141 VPWR VGND VPWR VGND sky130_fd_sc_hd__decap_3
XFILLER_12_174 VPWR VGND VPWR VGND sky130_fd_sc_hd__decap_3
XPHY_EDGE_ROW_19_Left_47 VPWR VGND VPWR VGND sky130_fd_sc_hd__decap_3
XFILLER_12_18 VPWR VGND VPWR VGND sky130_fd_sc_hd__decap_3
XFILLER_12_29 VPWR VGND VPWR VGND sky130_fd_sc_hd__decap_3
XFILLER_5_137 VPWR VGND VPWR VGND sky130_fd_sc_hd__decap_3
Xu5 VPWR VGND u6/A u5/A VPWR VGND u5/a_27_47# sky130_fd_sc_hd__buf_2
XFILLER_27_81 VPWR VGND VPWR VGND sky130_fd_sc_hd__decap_3
XFILLER_4_85 VPWR VGND VPWR VGND sky130_fd_sc_hd__decap_3
XFILLER_4_74 VPWR VGND VPWR VGND sky130_fd_sc_hd__decap_3
XFILLER_4_41 VPWR VGND VPWR VGND sky130_fd_sc_hd__decap_3
XFILLER_23_39 VPWR VGND VPWR VGND sky130_fd_sc_hd__decap_3
XFILLER_3_9 VPWR VGND VPWR VGND sky130_fd_sc_hd__decap_3
XFILLER_2_118 VPWR VGND VPWR VGND sky130_fd_sc_hd__decap_3
XFILLER_13_94 VPWR VGND VPWR VGND sky130_fd_sc_hd__decap_3
XFILLER_1_184 VPWR VGND VPWR VGND sky130_fd_sc_hd__decap_3
XFILLER_1_140 VPWR VGND VPWR VGND sky130_fd_sc_hd__decap_3
XFILLER_1_6 VPWR VGND VPWR VGND sky130_fd_sc_hd__decap_3
XFILLER_24_71 VPWR VGND VPWR VGND sky130_fd_sc_hd__decap_3
XFILLER_1_42 VPWR VGND VPWR VGND sky130_fd_sc_hd__decap_3
XFILLER_1_75 VPWR VGND VPWR VGND sky130_fd_sc_hd__decap_3
XFILLER_20_18 VPWR VGND VPWR VGND sky130_fd_sc_hd__decap_3
XFILLER_20_29 VPWR VGND VPWR VGND sky130_fd_sc_hd__decap_3
XPHY_EDGE_ROW_7_Left_35 VPWR VGND VPWR VGND sky130_fd_sc_hd__decap_3
XFILLER_10_62 VPWR VGND VPWR VGND sky130_fd_sc_hd__decap_3
XFILLER_19_60 VPWR VGND VPWR VGND sky130_fd_sc_hd__decap_3
XFILLER_19_125 VPWR VGND VPWR VGND sky130_fd_sc_hd__decap_3
XFILLER_19_93 VPWR VGND VPWR VGND sky130_fd_sc_hd__decap_3
XFILLER_19_158 VPWR VGND VPWR VGND sky130_fd_sc_hd__decap_3
XFILLER_19_169 VPWR VGND VPWR VGND sky130_fd_sc_hd__decap_3
XFILLER_25_128 VPWR VGND VPWR VGND sky130_fd_sc_hd__decap_3
XFILLER_15_18 VPWR VGND VPWR VGND sky130_fd_sc_hd__decap_3
XFILLER_18_180 VPWR VGND VPWR VGND sky130_fd_sc_hd__decap_3
XFILLER_24_150 VPWR VGND VPWR VGND sky130_fd_sc_hd__decap_3
XFILLER_16_106 VPWR VGND VPWR VGND sky130_fd_sc_hd__decap_3
XFILLER_24_183 VPWR VGND VPWR VGND sky130_fd_sc_hd__decap_3
XFILLER_21_72 VPWR VGND VPWR VGND sky130_fd_sc_hd__decap_3
XFILLER_22_109 VPWR VGND VPWR VGND sky130_fd_sc_hd__decap_3
XFILLER_15_161 VPWR VGND VPWR VGND sky130_fd_sc_hd__decap_3
XFILLER_15_172 VPWR VGND VPWR VGND sky130_fd_sc_hd__decap_3
XFILLER_7_30 VPWR VGND VPWR VGND sky130_fd_sc_hd__decap_3
XFILLER_7_63 VPWR VGND VPWR VGND sky130_fd_sc_hd__decap_3
XFILLER_7_96 VPWR VGND VPWR VGND sky130_fd_sc_hd__decap_3
XFILLER_13_109 VPWR VGND VPWR VGND sky130_fd_sc_hd__decap_3
XFILLER_21_131 VPWR VGND VPWR VGND sky130_fd_sc_hd__decap_3
XFILLER_21_164 VPWR VGND VPWR VGND sky130_fd_sc_hd__decap_3