* NGSPICE file created from characterization_top.ext - technology: sky130A

* Black-box entry subcircuit for sky130_fd_sc_hd__decap_3 abstract view
.subckt sky130_fd_sc_hd__decap_3 VGND VNB VPB VPWR
.ends

* Black-box entry subcircuit for sky130_fd_sc_hd__fill_1 abstract view
.subckt sky130_fd_sc_hd__fill_1 VGND VNB VPB VPWR
.ends

* Black-box entry subcircuit for sky130_fd_sc_hd__tapvpwrvgnd_1 abstract view
.subckt sky130_fd_sc_hd__tapvpwrvgnd_1 VGND VPWR
.ends

* Black-box entry subcircuit for sky130_fd_sc_hd__dlygate4sd3_1 abstract view
.subckt sky130_fd_sc_hd__dlygate4sd3_1 A VGND VNB VPB VPWR X
.ends

* Black-box entry subcircuit for sky130_fd_sc_hd__fill_2 abstract view
.subckt sky130_fd_sc_hd__fill_2 VGND VNB VPB VPWR
.ends

* Black-box entry subcircuit for sky130_fd_sc_hd__inv_2 abstract view
.subckt sky130_fd_sc_hd__inv_2 A VGND VNB VPB VPWR Y
.ends

* Black-box entry subcircuit for sky130_fd_sc_hd__a21oi_2 abstract view
.subckt sky130_fd_sc_hd__a21oi_2 A1 A2 B1 VGND VNB VPB VPWR Y
.ends

* Black-box entry subcircuit for sky130_fd_sc_hd__dfrtp_2 abstract view
.subckt sky130_fd_sc_hd__dfrtp_2 CLK D RESET_B VGND VNB VPB VPWR Q
.ends

* Black-box entry subcircuit for sky130_fd_sc_hd__clkdlybuf4s25_1 abstract view
.subckt sky130_fd_sc_hd__clkdlybuf4s25_1 A VGND VNB VPB VPWR X
.ends

* Black-box entry subcircuit for sky130_fd_sc_hd__a32o_2 abstract view
.subckt sky130_fd_sc_hd__a32o_2 A1 A2 A3 B1 B2 VGND VNB VPB VPWR X
.ends

* Black-box entry subcircuit for sky130_fd_sc_hd__mux2_1 abstract view
.subckt sky130_fd_sc_hd__mux2_1 A0 A1 S VGND VNB VPB VPWR X
.ends

* Black-box entry subcircuit for sky130_fd_sc_hd__and2_2 abstract view
.subckt sky130_fd_sc_hd__and2_2 A B VGND VNB VPB VPWR X
.ends

* Black-box entry subcircuit for sky130_fd_sc_hd__a22o_2 abstract view
.subckt sky130_fd_sc_hd__a22o_2 A1 A2 B1 B2 VGND VNB VPB VPWR X
.ends

* Black-box entry subcircuit for sky130_fd_sc_hd__a31oi_2 abstract view
.subckt sky130_fd_sc_hd__a31oi_2 A1 A2 A3 B1 VGND VNB VPB VPWR Y
.ends

* Black-box entry subcircuit for sky130_fd_sc_hd__and2b_2 abstract view
.subckt sky130_fd_sc_hd__and2b_2 A_N B VGND VNB VPB VPWR X
.ends

* Black-box entry subcircuit for sky130_fd_sc_hd__o311a_2 abstract view
.subckt sky130_fd_sc_hd__o311a_2 A1 A2 A3 B1 C1 VGND VNB VPB VPWR X
.ends

* Black-box entry subcircuit for sky130_fd_sc_hd__buf_4 abstract view
.subckt sky130_fd_sc_hd__buf_4 A VGND VNB VPB VPWR X
.ends

* Black-box entry subcircuit for sky130_fd_sc_hd__nor2_2 abstract view
.subckt sky130_fd_sc_hd__nor2_2 A B VGND VNB VPB VPWR Y
.ends

* Black-box entry subcircuit for sky130_fd_sc_hd__and4_2 abstract view
.subckt sky130_fd_sc_hd__and4_2 A B C D VGND VNB VPB VPWR X
.ends

* Black-box entry subcircuit for sky130_fd_sc_hd__and3_2 abstract view
.subckt sky130_fd_sc_hd__and3_2 A B C VGND VNB VPB VPWR X
.ends

* Black-box entry subcircuit for sky130_fd_sc_hd__o21ai_2 abstract view
.subckt sky130_fd_sc_hd__o21ai_2 A1 A2 B1 VGND VNB VPB VPWR Y
.ends

* Black-box entry subcircuit for sky130_fd_sc_hd__a31o_2 abstract view
.subckt sky130_fd_sc_hd__a31o_2 A1 A2 A3 B1 VGND VNB VPB VPWR X
.ends

* Black-box entry subcircuit for sky130_fd_sc_hd__clkbuf_4 abstract view
.subckt sky130_fd_sc_hd__clkbuf_4 A VGND VNB VPB VPWR X
.ends

* Black-box entry subcircuit for sky130_fd_sc_hd__o21a_2 abstract view
.subckt sky130_fd_sc_hd__o21a_2 A1 A2 B1 VGND VNB VPB VPWR X
.ends

* Black-box entry subcircuit for sky130_fd_sc_hd__nand2_2 abstract view
.subckt sky130_fd_sc_hd__nand2_2 A B VGND VNB VPB VPWR Y
.ends

* Black-box entry subcircuit for sky130_fd_sc_hd__or2_2 abstract view
.subckt sky130_fd_sc_hd__or2_2 A B VGND VNB VPB VPWR X
.ends

* Black-box entry subcircuit for sky130_fd_sc_hd__a21o_2 abstract view
.subckt sky130_fd_sc_hd__a21o_2 A1 A2 B1 VGND VNB VPB VPWR X
.ends

* Black-box entry subcircuit for sky130_fd_sc_hd__clkbuf_8 abstract view
.subckt sky130_fd_sc_hd__clkbuf_8 A VGND VNB VPB VPWR X
.ends

* Black-box entry subcircuit for sky130_fd_sc_hd__or3_2 abstract view
.subckt sky130_fd_sc_hd__or3_2 A B C VGND VNB VPB VPWR X
.ends

* Black-box entry subcircuit for sky130_fd_sc_hd__inv_6 abstract view
.subckt sky130_fd_sc_hd__inv_6 A VGND VNB VPB VPWR Y
.ends

* Black-box entry subcircuit for sky130_fd_sc_hd__nor3b_2 abstract view
.subckt sky130_fd_sc_hd__nor3b_2 A B C_N VGND VNB VPB VPWR Y
.ends

* Black-box entry subcircuit for sky130_fd_sc_hd__buf_2 abstract view
.subckt sky130_fd_sc_hd__buf_2 A VGND VNB VPB VPWR X
.ends

* Black-box entry subcircuit for sky130_fd_sc_hd__or3b_2 abstract view
.subckt sky130_fd_sc_hd__or3b_2 A B C_N VGND VNB VPB VPWR X
.ends

* Black-box entry subcircuit for sky130_fd_sc_hd__o31a_2 abstract view
.subckt sky130_fd_sc_hd__o31a_2 A1 A2 A3 B1 VGND VNB VPB VPWR X
.ends

* Black-box entry subcircuit for sky130_fd_sc_hd__nor4_2 abstract view
.subckt sky130_fd_sc_hd__nor4_2 A B C D VGND VNB VPB VPWR Y
.ends

* Black-box entry subcircuit for sky130_fd_sc_hd__nand2b_2 abstract view
.subckt sky130_fd_sc_hd__nand2b_2 A_N B VGND VNB VPB VPWR Y
.ends

* Black-box entry subcircuit for sky130_fd_sc_hd__a41o_2 abstract view
.subckt sky130_fd_sc_hd__a41o_2 A1 A2 A3 A4 B1 VGND VNB VPB VPWR X
.ends

* Black-box entry subcircuit for sky130_fd_sc_hd__nor3_2 abstract view
.subckt sky130_fd_sc_hd__nor3_2 A B C VGND VNB VPB VPWR Y
.ends

* Black-box entry subcircuit for sky130_fd_sc_hd__clkbuf_16 abstract view
.subckt sky130_fd_sc_hd__clkbuf_16 A VGND VNB VPB VPWR X
.ends

* Black-box entry subcircuit for sky130_fd_sc_hd__o21ba_2 abstract view
.subckt sky130_fd_sc_hd__o21ba_2 A1 A2 B1_N VGND VNB VPB VPWR X
.ends

* Black-box entry subcircuit for sky130_fd_sc_hd__or4_2 abstract view
.subckt sky130_fd_sc_hd__or4_2 A B C D VGND VNB VPB VPWR X
.ends

* Black-box entry subcircuit for sky130_fd_sc_hd__bufinv_16 abstract view
.subckt sky130_fd_sc_hd__bufinv_16 A VGND VNB VPB VPWR Y
.ends

* Black-box entry subcircuit for sky130_fd_sc_hd__and3b_2 abstract view
.subckt sky130_fd_sc_hd__and3b_2 A_N B C VGND VNB VPB VPWR X
.ends

* Black-box entry subcircuit for sky130_fd_sc_hd__o211a_2 abstract view
.subckt sky130_fd_sc_hd__o211a_2 A1 A2 B1 C1 VGND VNB VPB VPWR X
.ends

* Black-box entry subcircuit for sky130_fd_sc_hd__a2bb2o_2 abstract view
.subckt sky130_fd_sc_hd__a2bb2o_2 A1_N A2_N B1 B2 VGND VNB VPB VPWR X
.ends

* Black-box entry subcircuit for sky130_fd_sc_hd__clkinv_2 abstract view
.subckt sky130_fd_sc_hd__clkinv_2 A VGND VNB VPB VPWR Y
.ends

* Black-box entry subcircuit for sky130_fd_sc_hd__conb_1 abstract view
.subckt sky130_fd_sc_hd__conb_1 VGND VNB VPB VPWR HI LO
.ends

* Black-box entry subcircuit for sky130_fd_sc_hd__nand3_2 abstract view
.subckt sky130_fd_sc_hd__nand3_2 A B C VGND VNB VPB VPWR Y
.ends

* Black-box entry subcircuit for sky130_fd_sc_hd__dfstp_2 abstract view
.subckt sky130_fd_sc_hd__dfstp_2 CLK D SET_B VGND VNB VPB VPWR Q
.ends

* Black-box entry subcircuit for sky130_fd_sc_hd__a21boi_2 abstract view
.subckt sky130_fd_sc_hd__a21boi_2 A1 A2 B1_N VGND VNB VPB VPWR Y
.ends

* Black-box entry subcircuit for sky130_fd_sc_hd__and4bb_2 abstract view
.subckt sky130_fd_sc_hd__and4bb_2 A_N B_N C D VGND VNB VPB VPWR X
.ends

* Black-box entry subcircuit for sky130_fd_sc_hd__buf_1 abstract view
.subckt sky130_fd_sc_hd__buf_1 A VGND VNB VPB VPWR X
.ends

* Black-box entry subcircuit for sky130_fd_sc_hd__a311oi_2 abstract view
.subckt sky130_fd_sc_hd__a311oi_2 A1 A2 A3 B1 C1 VGND VNB VPB VPWR Y
.ends

* Black-box entry subcircuit for sky130_fd_sc_hd__nand4_2 abstract view
.subckt sky130_fd_sc_hd__nand4_2 A B C D VGND VNB VPB VPWR Y
.ends

* Black-box entry subcircuit for sky130_fd_sc_hd__a2111o_2 abstract view
.subckt sky130_fd_sc_hd__a2111o_2 A1 A2 B1 C1 D1 VGND VNB VPB VPWR X
.ends

* Black-box entry subcircuit for sky130_fd_sc_hd__and4b_2 abstract view
.subckt sky130_fd_sc_hd__and4b_2 A_N B C D VGND VNB VPB VPWR X
.ends

* Black-box entry subcircuit for sky130_fd_sc_hd__clkbuf_2 abstract view
.subckt sky130_fd_sc_hd__clkbuf_2 A VGND VNB VPB VPWR X
.ends

* Black-box entry subcircuit for sky130_fd_sc_hd__o2111a_2 abstract view
.subckt sky130_fd_sc_hd__o2111a_2 A1 A2 B1 C1 D1 VGND VNB VPB VPWR X
.ends

* Black-box entry subcircuit for sky130_fd_sc_hd__o2111ai_2 abstract view
.subckt sky130_fd_sc_hd__o2111ai_2 A1 A2 B1 C1 D1 VGND VNB VPB VPWR Y
.ends

* Black-box entry subcircuit for sky130_fd_sc_hd__diode_2 abstract view
.subckt sky130_fd_sc_hd__diode_2 DIODE VGND VNB VPB VPWR
.ends

* Black-box entry subcircuit for sky130_fd_sc_hd__o22a_2 abstract view
.subckt sky130_fd_sc_hd__o22a_2 A1 A2 B1 B2 VGND VNB VPB VPWR X
.ends

.subckt characterization_top VGND VPWR busy clk clk_bad_duty clk_fast clk_slow clk_stuck_high
+ clk_stuck_low clock_status_reg[0] clock_status_reg[1] clock_status_reg[2] clock_status_reg[3]
+ clock_status_reg[4] clock_status_reg[5] clock_status_reg[6] clock_status_reg[7]
+ corner_class_reg[0] corner_class_reg[1] corner_class_reg[2] delay_count_reg_0[0]
+ delay_count_reg_0[10] delay_count_reg_0[11] delay_count_reg_0[12] delay_count_reg_0[13]
+ delay_count_reg_0[14] delay_count_reg_0[15] delay_count_reg_0[1] delay_count_reg_0[2]
+ delay_count_reg_0[3] delay_count_reg_0[4] delay_count_reg_0[5] delay_count_reg_0[6]
+ delay_count_reg_0[7] delay_count_reg_0[8] delay_count_reg_0[9] delay_count_reg_1[0]
+ delay_count_reg_1[10] delay_count_reg_1[11] delay_count_reg_1[12] delay_count_reg_1[13]
+ delay_count_reg_1[14] delay_count_reg_1[15] delay_count_reg_1[1] delay_count_reg_1[2]
+ delay_count_reg_1[3] delay_count_reg_1[4] delay_count_reg_1[5] delay_count_reg_1[6]
+ delay_count_reg_1[7] delay_count_reg_1[8] delay_count_reg_1[9] delay_count_reg_2[0]
+ delay_count_reg_2[10] delay_count_reg_2[11] delay_count_reg_2[12] delay_count_reg_2[13]
+ delay_count_reg_2[14] delay_count_reg_2[15] delay_count_reg_2[1] delay_count_reg_2[2]
+ delay_count_reg_2[3] delay_count_reg_2[4] delay_count_reg_2[5] delay_count_reg_2[6]
+ delay_count_reg_2[7] delay_count_reg_2[8] delay_count_reg_2[9] done ro_clk_0 ro_clk_1
+ ro_clk_2 ro_count_reg_0[0] ro_count_reg_0[1] ro_count_reg_0[2] ro_count_reg_0[3]
+ ro_count_reg_0[4] ro_count_reg_0[5] ro_count_reg_0[6] ro_count_reg_0[7] ro_count_reg_1[0]
+ ro_count_reg_1[1] ro_count_reg_1[2] ro_count_reg_1[3] ro_count_reg_1[4] ro_count_reg_1[5]
+ ro_count_reg_1[6] ro_count_reg_1[7] ro_count_reg_2[0] ro_count_reg_2[1] ro_count_reg_2[2]
+ ro_count_reg_2[3] ro_count_reg_2[4] ro_count_reg_2[5] ro_count_reg_2[6] ro_count_reg_2[7]
+ rst start status_reg[0] status_reg[1] status_reg[2] status_reg[3] status_reg[4]
+ status_reg[5] status_reg[6] status_reg[7]
XFILLER_100_127 VGND VGND VPWR VPWR sky130_fd_sc_hd__decap_3
XFILLER_39_211 VGND VGND VPWR VPWR sky130_fd_sc_hd__decap_3
XFILLER_67_520 VGND VGND VPWR VPWR sky130_fd_sc_hd__decap_3
XFILLER_79_391 VGND VGND VPWR VPWR sky130_fd_sc_hd__fill_1
XFILLER_67_553 VGND VGND VPWR VPWR sky130_fd_sc_hd__decap_3
XFILLER_95_862 VGND VGND VPWR VPWR sky130_fd_sc_hd__decap_3
XFILLER_39_255 VGND VGND VPWR VPWR sky130_fd_sc_hd__decap_3
XFILLER_67_564 VGND VGND VPWR VPWR sky130_fd_sc_hd__decap_3
XFILLER_82_501 VGND VGND VPWR VPWR sky130_fd_sc_hd__decap_3
XFILLER_55_715 VGND VGND VPWR VPWR sky130_fd_sc_hd__decap_3
XFILLER_27_417 VGND VGND VPWR VPWR sky130_fd_sc_hd__decap_3
XFILLER_95_895 VGND VGND VPWR VPWR sky130_fd_sc_hd__fill_1
XFILLER_54_203 VGND VGND VPWR VPWR sky130_fd_sc_hd__decap_3
XFILLER_67_597 VGND VGND VPWR VPWR sky130_fd_sc_hd__decap_3
XFILLER_94_383 VGND VGND VPWR VPWR sky130_fd_sc_hd__decap_3
XFILLER_39_299 VGND VGND VPWR VPWR sky130_fd_sc_hd__decap_3
XFILLER_36_940 VGND VGND VPWR VPWR sky130_fd_sc_hd__decap_3
XFILLER_82_545 VGND VGND VPWR VPWR sky130_fd_sc_hd__decap_3
XFILLER_55_759 VGND VGND VPWR VPWR sky130_fd_sc_hd__decap_3
XFILLER_54_236 VGND VGND VPWR VPWR sky130_fd_sc_hd__decap_3
XFILLER_70_707 VGND VGND VPWR VPWR sky130_fd_sc_hd__decap_3
XFILLER_36_973 VGND VGND VPWR VPWR sky130_fd_sc_hd__decap_3
XFILLER_82_578 VGND VGND VPWR VPWR sky130_fd_sc_hd__decap_3
XFILLER_23_601 VGND VGND VPWR VPWR sky130_fd_sc_hd__decap_3
XFILLER_36_984 VGND VGND VPWR VPWR sky130_fd_sc_hd__decap_3
XFILLER_82_589 VGND VGND VPWR VPWR sky130_fd_sc_hd__decap_3
XFILLER_74_1014 VGND VGND VPWR VPWR sky130_fd_sc_hd__decap_3
XFILLER_51_921 VGND VGND VPWR VPWR sky130_fd_sc_hd__decap_3
XFILLER_22_100 VGND VGND VPWR VPWR sky130_fd_sc_hd__decap_3
XFILLER_62_280 VGND VGND VPWR VPWR sky130_fd_sc_hd__decap_3
XFILLER_52_18 VGND VGND VPWR VPWR sky130_fd_sc_hd__decap_3
XFILLER_35_1009 VGND VGND VPWR VPWR sky130_fd_sc_hd__decap_3
XFILLER_74_1058 VGND VGND VPWR VPWR sky130_fd_sc_hd__fill_1
XFILLER_52_29 VGND VGND VPWR VPWR sky130_fd_sc_hd__decap_3
XFILLER_51_965 VGND VGND VPWR VPWR sky130_fd_sc_hd__decap_3
XFILLER_22_133 VGND VGND VPWR VPWR sky130_fd_sc_hd__decap_3
XFILLER_50_442 VGND VGND VPWR VPWR sky130_fd_sc_hd__decap_3
XFILLER_167_105 VGND VGND VPWR VPWR sky130_fd_sc_hd__decap_3
XFILLER_22_144 VGND VGND VPWR VPWR sky130_fd_sc_hd__decap_3
XFILLER_23_667 VGND VGND VPWR VPWR sky130_fd_sc_hd__decap_3
XFILLER_11_818 VGND VGND VPWR VPWR sky130_fd_sc_hd__decap_3
XFILLER_167_116 VGND VGND VPWR VPWR sky130_fd_sc_hd__decap_3
XFILLER_168_18 VGND VGND VPWR VPWR sky130_fd_sc_hd__decap_3
XFILLER_161_1039 VGND VGND VPWR VPWR sky130_fd_sc_hd__decap_3
XFILLER_168_29 VGND VGND VPWR VPWR sky130_fd_sc_hd__decap_3
XFILLER_51_998 VGND VGND VPWR VPWR sky130_fd_sc_hd__decap_3
XFILLER_50_475 VGND VGND VPWR VPWR sky130_fd_sc_hd__fill_1
XFILLER_167_149 VGND VGND VPWR VPWR sky130_fd_sc_hd__decap_3
XFILLER_22_177 VGND VGND VPWR VPWR sky130_fd_sc_hd__decap_3
XFILLER_50_486 VGND VGND VPWR VPWR sky130_fd_sc_hd__decap_3
XFILLER_139_9 VGND VGND VPWR VPWR sky130_fd_sc_hd__decap_3
XFILLER_148_330 VGND VGND VPWR VPWR sky130_fd_sc_hd__decap_3
XFILLER_149_853 VGND VGND VPWR VPWR sky130_fd_sc_hd__decap_3
XFILLER_10_339 VGND VGND VPWR VPWR sky130_fd_sc_hd__decap_3
XFILLER_109_706 VGND VGND VPWR VPWR sky130_fd_sc_hd__decap_3
XFILLER_149_886 VGND VGND VPWR VPWR sky130_fd_sc_hd__decap_3
XFILLER_148_363 VGND VGND VPWR VPWR sky130_fd_sc_hd__fill_1
XFILLER_148_374 VGND VGND VPWR VPWR sky130_fd_sc_hd__decap_3
XFILLER_149_897 VGND VGND VPWR VPWR sky130_fd_sc_hd__decap_3
XFILLER_163_311 VGND VGND VPWR VPWR sky130_fd_sc_hd__decap_3
XFILLER_164_834 VGND VGND VPWR VPWR sky130_fd_sc_hd__decap_3
XFILLER_108_227 VGND VGND VPWR VPWR sky130_fd_sc_hd__decap_3
XFILLER_164_867 VGND VGND VPWR VPWR sky130_fd_sc_hd__fill_1
XFILLER_117_750 VGND VGND VPWR VPWR sky130_fd_sc_hd__decap_3
XFILLER_11_1042 VGND VGND VPWR VPWR sky130_fd_sc_hd__decap_3
XFILLER_163_355 VGND VGND VPWR VPWR sky130_fd_sc_hd__decap_3
XFILLER_164_878 VGND VGND VPWR VPWR sky130_fd_sc_hd__decap_3
XFILLER_123_208 VGND VGND VPWR VPWR sky130_fd_sc_hd__decap_3
XFILLER_105_912 VGND VGND VPWR VPWR sky130_fd_sc_hd__decap_3
XTAP_TAPCELL_ROW_57_1431 VGND VPWR sky130_fd_sc_hd__tapvpwrvgnd_1
XFILLER_117_783 VGND VGND VPWR VPWR sky130_fd_sc_hd__fill_1
XFILLER_163_388 VGND VGND VPWR VPWR sky130_fd_sc_hd__decap_3
Xhold340 _1485_/Q VGND VGND VPWR VPWR hold340/X sky130_fd_sc_hd__dlygate4sd3_1
XFILLER_117_33 VGND VGND VPWR VPWR sky130_fd_sc_hd__decap_3
XFILLER_117_794 VGND VGND VPWR VPWR sky130_fd_sc_hd__decap_3
XFILLER_163_399 VGND VGND VPWR VPWR sky130_fd_sc_hd__decap_3
XFILLER_105_945 VGND VGND VPWR VPWR sky130_fd_sc_hd__decap_3
XFILLER_116_271 VGND VGND VPWR VPWR sky130_fd_sc_hd__decap_3
XTAP_TAPCELL_ROW_92_2078 VGND VPWR sky130_fd_sc_hd__tapvpwrvgnd_1
Xhold351 _1642_/Q VGND VGND VPWR VPWR hold351/X sky130_fd_sc_hd__dlygate4sd3_1
XFILLER_89_111 VGND VGND VPWR VPWR sky130_fd_sc_hd__fill_1
XFILLER_105_956 VGND VGND VPWR VPWR sky130_fd_sc_hd__decap_3
XFILLER_132_731 VGND VGND VPWR VPWR sky130_fd_sc_hd__decap_3
Xhold362 _1636_/Q VGND VGND VPWR VPWR hold362/X sky130_fd_sc_hd__dlygate4sd3_1
XFILLER_89_122 VGND VGND VPWR VPWR sky130_fd_sc_hd__decap_3
XFILLER_104_433 VGND VGND VPWR VPWR sky130_fd_sc_hd__decap_3
Xhold373 _1645_/Q VGND VGND VPWR VPWR hold373/X sky130_fd_sc_hd__dlygate4sd3_1
XFILLER_81_1007 VGND VGND VPWR VPWR sky130_fd_sc_hd__fill_1
XFILLER_117_66 VGND VGND VPWR VPWR sky130_fd_sc_hd__decap_3
Xhold384 _1588_/Q VGND VGND VPWR VPWR hold384/X sky130_fd_sc_hd__dlygate4sd3_1
XFILLER_77_15 VGND VGND VPWR VPWR sky130_fd_sc_hd__decap_3
XFILLER_81_1018 VGND VGND VPWR VPWR sky130_fd_sc_hd__decap_3
XFILLER_105_989 VGND VGND VPWR VPWR sky130_fd_sc_hd__decap_3
Xhold395 _1702_/Q VGND VGND VPWR VPWR hold395/X sky130_fd_sc_hd__dlygate4sd3_1
XFILLER_89_155 VGND VGND VPWR VPWR sky130_fd_sc_hd__decap_3
XFILLER_104_466 VGND VGND VPWR VPWR sky130_fd_sc_hd__decap_3
XFILLER_131_252 VGND VGND VPWR VPWR sky130_fd_sc_hd__decap_3
XFILLER_132_775 VGND VGND VPWR VPWR sky130_fd_sc_hd__decap_3
XFILLER_104_477 VGND VGND VPWR VPWR sky130_fd_sc_hd__decap_3
XFILLER_117_99 VGND VGND VPWR VPWR sky130_fd_sc_hd__decap_3
XFILLER_77_48 VGND VGND VPWR VPWR sky130_fd_sc_hd__decap_3
XFILLER_77_317 VGND VGND VPWR VPWR sky130_fd_sc_hd__decap_3
XFILLER_120_937 VGND VGND VPWR VPWR sky130_fd_sc_hd__decap_3
XFILLER_89_199 VGND VGND VPWR VPWR sky130_fd_sc_hd__decap_3
XFILLER_131_296 VGND VGND VPWR VPWR sky130_fd_sc_hd__decap_3
XTAP_TAPCELL_ROW_70_1664 VGND VPWR sky130_fd_sc_hd__tapvpwrvgnd_1
XFILLER_86_840 VGND VGND VPWR VPWR sky130_fd_sc_hd__decap_3
XFILLER_58_531 VGND VGND VPWR VPWR sky130_fd_sc_hd__fill_1
XFILLER_133_21 VGND VGND VPWR VPWR sky130_fd_sc_hd__decap_3
XTAP_TAPCELL_ROW_70_1675 VGND VPWR sky130_fd_sc_hd__tapvpwrvgnd_1
XFILLER_58_542 VGND VGND VPWR VPWR sky130_fd_sc_hd__decap_3
XFILLER_19_918 VGND VGND VPWR VPWR sky130_fd_sc_hd__decap_3
XFILLER_46_704 VGND VGND VPWR VPWR sky130_fd_sc_hd__decap_3
XFILLER_92_309 VGND VGND VPWR VPWR sky130_fd_sc_hd__decap_3
XFILLER_133_54 VGND VGND VPWR VPWR sky130_fd_sc_hd__fill_2
XFILLER_86_884 VGND VGND VPWR VPWR sky130_fd_sc_hd__decap_3
XFILLER_58_575 VGND VGND VPWR VPWR sky130_fd_sc_hd__decap_3
XTAP_TAPCELL_ROW_29_913 VGND VPWR sky130_fd_sc_hd__tapvpwrvgnd_1
XFILLER_85_361 VGND VGND VPWR VPWR sky130_fd_sc_hd__decap_3
XFILLER_46_737 VGND VGND VPWR VPWR sky130_fd_sc_hd__decap_3
XFILLER_133_87 VGND VGND VPWR VPWR sky130_fd_sc_hd__decap_3
XFILLER_45_214 VGND VGND VPWR VPWR sky130_fd_sc_hd__decap_3
XFILLER_93_36 VGND VGND VPWR VPWR sky130_fd_sc_hd__decap_3
XFILLER_73_523 VGND VGND VPWR VPWR sky130_fd_sc_hd__decap_3
XFILLER_18_439 VGND VGND VPWR VPWR sky130_fd_sc_hd__decap_3
XFILLER_45_225 VGND VGND VPWR VPWR sky130_fd_sc_hd__decap_3
XFILLER_172_3 VGND VGND VPWR VPWR sky130_fd_sc_hd__decap_3
XFILLER_73_556 VGND VGND VPWR VPWR sky130_fd_sc_hd__decap_3
XFILLER_27_951 VGND VGND VPWR VPWR sky130_fd_sc_hd__fill_1
XFILLER_93_69 VGND VGND VPWR VPWR sky130_fd_sc_hd__decap_3
XFILLER_27_962 VGND VGND VPWR VPWR sky130_fd_sc_hd__decap_3
XFILLER_45_258 VGND VGND VPWR VPWR sky130_fd_sc_hd__decap_3
XFILLER_73_567 VGND VGND VPWR VPWR sky130_fd_sc_hd__decap_3
XFILLER_26_41 VGND VGND VPWR VPWR sky130_fd_sc_hd__decap_3
XFILLER_61_718 VGND VGND VPWR VPWR sky130_fd_sc_hd__decap_3
XFILLER_61_729 VGND VGND VPWR VPWR sky130_fd_sc_hd__decap_3
XFILLER_60_206 VGND VGND VPWR VPWR sky130_fd_sc_hd__decap_3
XFILLER_26_74 VGND VGND VPWR VPWR sky130_fd_sc_hd__decap_3
XFILLER_27_995 VGND VGND VPWR VPWR sky130_fd_sc_hd__decap_3
XFILLER_54_781 VGND VGND VPWR VPWR sky130_fd_sc_hd__decap_3
XFILLER_26_483 VGND VGND VPWR VPWR sky130_fd_sc_hd__decap_3
XFILLER_26_85 VGND VGND VPWR VPWR sky130_fd_sc_hd__decap_3
XFILLER_42_943 VGND VGND VPWR VPWR sky130_fd_sc_hd__decap_3
XFILLER_60_239 VGND VGND VPWR VPWR sky130_fd_sc_hd__decap_3
XFILLER_13_111 VGND VGND VPWR VPWR sky130_fd_sc_hd__fill_1
XFILLER_41_420 VGND VGND VPWR VPWR sky130_fd_sc_hd__decap_3
XFILLER_13_122 VGND VGND VPWR VPWR sky130_fd_sc_hd__decap_3
XFILLER_42_976 VGND VGND VPWR VPWR sky130_fd_sc_hd__decap_3
XFILLER_13_155 VGND VGND VPWR VPWR sky130_fd_sc_hd__decap_3
XFILLER_42_987 VGND VGND VPWR VPWR sky130_fd_sc_hd__decap_3
XFILLER_158_127 VGND VGND VPWR VPWR sky130_fd_sc_hd__decap_3
XFILLER_41_486 VGND VGND VPWR VPWR sky130_fd_sc_hd__decap_3
XFILLER_9_137 VGND VGND VPWR VPWR sky130_fd_sc_hd__decap_3
XFILLER_13_199 VGND VGND VPWR VPWR sky130_fd_sc_hd__decap_3
XFILLER_42_62 VGND VGND VPWR VPWR sky130_fd_sc_hd__decap_3
XFILLER_10_840 VGND VGND VPWR VPWR sky130_fd_sc_hd__decap_3
XFILLER_139_352 VGND VGND VPWR VPWR sky130_fd_sc_hd__decap_3
XFILLER_155_812 VGND VGND VPWR VPWR sky130_fd_sc_hd__decap_3
XFILLER_173_108 VGND VGND VPWR VPWR sky130_fd_sc_hd__decap_3
XFILLER_173_119 VGND VGND VPWR VPWR sky130_fd_sc_hd__decap_3
XFILLER_6_811 VGND VGND VPWR VPWR sky130_fd_sc_hd__fill_1
XFILLER_139_385 VGND VGND VPWR VPWR sky130_fd_sc_hd__decap_3
XFILLER_158_62 VGND VGND VPWR VPWR sky130_fd_sc_hd__decap_3
XFILLER_167_694 VGND VGND VPWR VPWR sky130_fd_sc_hd__decap_3
XFILLER_166_171 VGND VGND VPWR VPWR sky130_fd_sc_hd__decap_3
XTAP_TAPCELL_ROW_77_1807 VGND VPWR sky130_fd_sc_hd__tapvpwrvgnd_1
XFILLER_6_822 VGND VGND VPWR VPWR sky130_fd_sc_hd__decap_3
XFILLER_10_884 VGND VGND VPWR VPWR sky130_fd_sc_hd__decap_3
XFILLER_127_547 VGND VGND VPWR VPWR sky130_fd_sc_hd__decap_3
XFILLER_154_333 VGND VGND VPWR VPWR sky130_fd_sc_hd__decap_3
XFILLER_155_856 VGND VGND VPWR VPWR sky130_fd_sc_hd__decap_3
XFILLER_6_855 VGND VGND VPWR VPWR sky130_fd_sc_hd__decap_3
XFILLER_115_709 VGND VGND VPWR VPWR sky130_fd_sc_hd__decap_3
XFILLER_5_332 VGND VGND VPWR VPWR sky130_fd_sc_hd__decap_3
XFILLER_155_889 VGND VGND VPWR VPWR sky130_fd_sc_hd__decap_3
XFILLER_5_343 VGND VGND VPWR VPWR sky130_fd_sc_hd__decap_3
XFILLER_138_1008 VGND VGND VPWR VPWR sky130_fd_sc_hd__decap_3
XFILLER_108_772 VGND VGND VPWR VPWR sky130_fd_sc_hd__decap_3
XFILLER_154_377 VGND VGND VPWR VPWR sky130_fd_sc_hd__decap_3
XFILLER_54_9 VGND VGND VPWR VPWR sky130_fd_sc_hd__decap_3
XFILLER_142_528 VGND VGND VPWR VPWR sky130_fd_sc_hd__decap_3
XFILLER_170_837 VGND VGND VPWR VPWR sky130_fd_sc_hd__decap_3
XFILLER_6_899 VGND VGND VPWR VPWR sky130_fd_sc_hd__decap_3
XFILLER_5_376 VGND VGND VPWR VPWR sky130_fd_sc_hd__decap_3
XFILLER_174_50 VGND VGND VPWR VPWR sky130_fd_sc_hd__decap_3
XFILLER_107_293 VGND VGND VPWR VPWR sky130_fd_sc_hd__decap_3
XFILLER_123_753 VGND VGND VPWR VPWR sky130_fd_sc_hd__decap_3
XFILLER_122_230 VGND VGND VPWR VPWR sky130_fd_sc_hd__decap_3
XFILLER_174_72 VGND VGND VPWR VPWR sky130_fd_sc_hd__decap_3
XFILLER_3_12 VGND VGND VPWR VPWR sky130_fd_sc_hd__decap_3
XFILLER_96_604 VGND VGND VPWR VPWR sky130_fd_sc_hd__decap_3
XFILLER_69_818 VGND VGND VPWR VPWR sky130_fd_sc_hd__decap_3
XFILLER_111_915 VGND VGND VPWR VPWR sky130_fd_sc_hd__decap_3
XFILLER_150_561 VGND VGND VPWR VPWR sky130_fd_sc_hd__decap_3
XFILLER_174_94 VGND VGND VPWR VPWR sky130_fd_sc_hd__decap_3
XFILLER_123_797 VGND VGND VPWR VPWR sky130_fd_sc_hd__decap_3
XFILLER_3_45 VGND VGND VPWR VPWR sky130_fd_sc_hd__decap_3
XFILLER_111_948 VGND VGND VPWR VPWR sky130_fd_sc_hd__decap_3
XFILLER_122_274 VGND VGND VPWR VPWR sky130_fd_sc_hd__decap_3
XFILLER_96_637 VGND VGND VPWR VPWR sky130_fd_sc_hd__decap_3
XFILLER_111_959 VGND VGND VPWR VPWR sky130_fd_sc_hd__decap_3
XFILLER_49_520 VGND VGND VPWR VPWR sky130_fd_sc_hd__decap_3
X_1270_ _1424_/A VGND VGND VPWR VPWR _1270_/Y sky130_fd_sc_hd__inv_2
XFILLER_96_648 VGND VGND VPWR VPWR sky130_fd_sc_hd__decap_3
XFILLER_95_125 VGND VGND VPWR VPWR sky130_fd_sc_hd__decap_3
XFILLER_68_339 VGND VGND VPWR VPWR sky130_fd_sc_hd__decap_3
XFILLER_110_436 VGND VGND VPWR VPWR sky130_fd_sc_hd__decap_3
XTAP_TAPCELL_ROW_147_3089 VGND VPWR sky130_fd_sc_hd__tapvpwrvgnd_1
XFILLER_3_78 VGND VGND VPWR VPWR sky130_fd_sc_hd__decap_3
XFILLER_49_553 VGND VGND VPWR VPWR sky130_fd_sc_hd__decap_3
XFILLER_95_158 VGND VGND VPWR VPWR sky130_fd_sc_hd__decap_3
XFILLER_77_862 VGND VGND VPWR VPWR sky130_fd_sc_hd__decap_3
XFILLER_49_564 VGND VGND VPWR VPWR sky130_fd_sc_hd__decap_3
XFILLER_95_169 VGND VGND VPWR VPWR sky130_fd_sc_hd__decap_3
XFILLER_67_81 VGND VGND VPWR VPWR sky130_fd_sc_hd__decap_3
XFILLER_114_1052 VGND VGND VPWR VPWR sky130_fd_sc_hd__decap_3
XFILLER_37_715 VGND VGND VPWR VPWR sky130_fd_sc_hd__decap_3
XFILLER_3_1007 VGND VGND VPWR VPWR sky130_fd_sc_hd__fill_1
XFILLER_3_1018 VGND VGND VPWR VPWR sky130_fd_sc_hd__decap_3
XFILLER_64_501 VGND VGND VPWR VPWR sky130_fd_sc_hd__decap_3
XFILLER_36_203 VGND VGND VPWR VPWR sky130_fd_sc_hd__decap_3
XFILLER_77_895 VGND VGND VPWR VPWR sky130_fd_sc_hd__fill_1
XFILLER_49_597 VGND VGND VPWR VPWR sky130_fd_sc_hd__decap_3
XFILLER_76_383 VGND VGND VPWR VPWR sky130_fd_sc_hd__decap_3
XFILLER_92_843 VGND VGND VPWR VPWR sky130_fd_sc_hd__decap_3
XFILLER_37_759 VGND VGND VPWR VPWR sky130_fd_sc_hd__decap_3
XFILLER_97_1036 VGND VGND VPWR VPWR sky130_fd_sc_hd__decap_3
XFILLER_91_320 VGND VGND VPWR VPWR sky130_fd_sc_hd__decap_3
XFILLER_18_940 VGND VGND VPWR VPWR sky130_fd_sc_hd__decap_3
XFILLER_36_236 VGND VGND VPWR VPWR sky130_fd_sc_hd__decap_3
XFILLER_64_545 VGND VGND VPWR VPWR sky130_fd_sc_hd__decap_3
XTAP_TAPCELL_ROW_125_2686 VGND VPWR sky130_fd_sc_hd__tapvpwrvgnd_1
XFILLER_52_707 VGND VGND VPWR VPWR sky130_fd_sc_hd__decap_3
XFILLER_18_973 VGND VGND VPWR VPWR sky130_fd_sc_hd__decap_3
XFILLER_92_887 VGND VGND VPWR VPWR sky130_fd_sc_hd__decap_3
XFILLER_64_578 VGND VGND VPWR VPWR sky130_fd_sc_hd__decap_3
XTAP_TAPCELL_ROW_125_2697 VGND VPWR sky130_fd_sc_hd__tapvpwrvgnd_1
XFILLER_91_364 VGND VGND VPWR VPWR sky130_fd_sc_hd__decap_3
XFILLER_64_589 VGND VGND VPWR VPWR sky130_fd_sc_hd__decap_3
XFILLER_18_984 VGND VGND VPWR VPWR sky130_fd_sc_hd__decap_3
XFILLER_33_921 VGND VGND VPWR VPWR sky130_fd_sc_hd__decap_3
XFILLER_51_217 VGND VGND VPWR VPWR sky130_fd_sc_hd__decap_3
XFILLER_51_228 VGND VGND VPWR VPWR sky130_fd_sc_hd__decap_3
XFILLER_44_280 VGND VGND VPWR VPWR sky130_fd_sc_hd__decap_3
XFILLER_60_740 VGND VGND VPWR VPWR sky130_fd_sc_hd__decap_3
XFILLER_33_965 VGND VGND VPWR VPWR sky130_fd_sc_hd__decap_3
XFILLER_149_105 VGND VGND VPWR VPWR sky130_fd_sc_hd__decap_3
XFILLER_149_116 VGND VGND VPWR VPWR sky130_fd_sc_hd__decap_3
XTAP_TAPCELL_ROW_15_651 VGND VPWR sky130_fd_sc_hd__tapvpwrvgnd_1
XFILLER_33_998 VGND VGND VPWR VPWR sky130_fd_sc_hd__decap_3
XTAP_TAPCELL_ROW_15_662 VGND VPWR sky130_fd_sc_hd__tapvpwrvgnd_1
XFILLER_60_784 VGND VGND VPWR VPWR sky130_fd_sc_hd__decap_3
XFILLER_32_486 VGND VGND VPWR VPWR sky130_fd_sc_hd__decap_3
XFILLER_34_1020 VGND VGND VPWR VPWR sky130_fd_sc_hd__decap_3
XFILLER_149_149 VGND VGND VPWR VPWR sky130_fd_sc_hd__decap_3
XFILLER_121_1001 VGND VGND VPWR VPWR sky130_fd_sc_hd__decap_3
XFILLER_121_1012 VGND VGND VPWR VPWR sky130_fd_sc_hd__decap_3
XFILLER_158_672 VGND VGND VPWR VPWR sky130_fd_sc_hd__decap_3
X_0985_ _1528_/Q _0990_/B _1529_/Q VGND VGND VPWR VPWR _0986_/C sky130_fd_sc_hd__a21oi_2
XFILLER_9_671 VGND VGND VPWR VPWR sky130_fd_sc_hd__fill_1
XFILLER_118_525 VGND VGND VPWR VPWR sky130_fd_sc_hd__decap_3
XFILLER_145_311 VGND VGND VPWR VPWR sky130_fd_sc_hd__decap_3
XFILLER_146_834 VGND VGND VPWR VPWR sky130_fd_sc_hd__decap_3
XFILLER_118_536 VGND VGND VPWR VPWR sky130_fd_sc_hd__decap_3
XFILLER_121_1045 VGND VGND VPWR VPWR sky130_fd_sc_hd__decap_3
XFILLER_9_693 VGND VGND VPWR VPWR sky130_fd_sc_hd__decap_3
XFILLER_146_867 VGND VGND VPWR VPWR sky130_fd_sc_hd__fill_1
XFILLER_157_193 VGND VGND VPWR VPWR sky130_fd_sc_hd__decap_3
XFILLER_118_569 VGND VGND VPWR VPWR sky130_fd_sc_hd__decap_3
XFILLER_146_878 VGND VGND VPWR VPWR sky130_fd_sc_hd__decap_3
XFILLER_172_130 VGND VGND VPWR VPWR sky130_fd_sc_hd__decap_3
XFILLER_173_653 VGND VGND VPWR VPWR sky130_fd_sc_hd__decap_3
XFILLER_8_192 VGND VGND VPWR VPWR sky130_fd_sc_hd__decap_3
XFILLER_145_355 VGND VGND VPWR VPWR sky130_fd_sc_hd__decap_3
XFILLER_172_141 VGND VGND VPWR VPWR sky130_fd_sc_hd__decap_3
XFILLER_161_815 VGND VGND VPWR VPWR sky130_fd_sc_hd__decap_3
XFILLER_105_208 VGND VGND VPWR VPWR sky130_fd_sc_hd__decap_3
XFILLER_133_528 VGND VGND VPWR VPWR sky130_fd_sc_hd__decap_3
XFILLER_145_388 VGND VGND VPWR VPWR sky130_fd_sc_hd__decap_3
XFILLER_173_697 VGND VGND VPWR VPWR sky130_fd_sc_hd__decap_3
XFILLER_172_174 VGND VGND VPWR VPWR sky130_fd_sc_hd__decap_3
XFILLER_145_399 VGND VGND VPWR VPWR sky130_fd_sc_hd__decap_3
X_1606_ clkload0/A _1606_/D _1433_/Y VGND VGND VPWR VPWR _1606_/Q sky130_fd_sc_hd__dfrtp_2
XFILLER_114_731 VGND VGND VPWR VPWR sky130_fd_sc_hd__decap_3
XFILLER_160_336 VGND VGND VPWR VPWR sky130_fd_sc_hd__decap_3
XFILLER_161_859 VGND VGND VPWR VPWR sky130_fd_sc_hd__decap_3
XFILLER_99_420 VGND VGND VPWR VPWR sky130_fd_sc_hd__decap_3
XFILLER_114_775 VGND VGND VPWR VPWR sky130_fd_sc_hd__decap_3
XFILLER_99_464 VGND VGND VPWR VPWR sky130_fd_sc_hd__decap_3
XTAP_TAPCELL_ROW_35_1025 VGND VPWR sky130_fd_sc_hd__tapvpwrvgnd_1
Xfanout105 _0880_/Y VGND VGND VPWR VPWR _0914_/B1 sky130_fd_sc_hd__clkdlybuf4s25_1
X_1537_ _1727_/CLK _1537_/D _1364_/Y VGND VGND VPWR VPWR _1537_/Q sky130_fd_sc_hd__dfrtp_2
XFILLER_113_252 VGND VGND VPWR VPWR sky130_fd_sc_hd__decap_3
Xfanout116 _1038_/Y VGND VGND VPWR VPWR _1048_/B1 sky130_fd_sc_hd__clkdlybuf4s25_1
XFILLER_87_615 VGND VGND VPWR VPWR sky130_fd_sc_hd__fill_1
XFILLER_102_937 VGND VGND VPWR VPWR sky130_fd_sc_hd__decap_3
Xfanout127 _1190_/B1 VGND VGND VPWR VPWR _0943_/B1 sky130_fd_sc_hd__clkdlybuf4s25_1
XFILLER_87_626 VGND VGND VPWR VPWR sky130_fd_sc_hd__decap_3
XFILLER_86_103 VGND VGND VPWR VPWR sky130_fd_sc_hd__decap_3
XFILLER_59_317 VGND VGND VPWR VPWR sky130_fd_sc_hd__decap_3
XFILLER_101_414 VGND VGND VPWR VPWR sky130_fd_sc_hd__decap_3
XFILLER_99_497 VGND VGND VPWR VPWR sky130_fd_sc_hd__decap_3
Xfanout149 _1188_/S VGND VGND VPWR VPWR _1189_/S sky130_fd_sc_hd__clkdlybuf4s25_1
XFILLER_113_296 VGND VGND VPWR VPWR sky130_fd_sc_hd__decap_3
XFILLER_87_659 VGND VGND VPWR VPWR sky130_fd_sc_hd__decap_3
XFILLER_80_1040 VGND VGND VPWR VPWR sky130_fd_sc_hd__decap_3
XFILLER_101_447 VGND VGND VPWR VPWR sky130_fd_sc_hd__fill_1
XFILLER_47_18 VGND VGND VPWR VPWR sky130_fd_sc_hd__decap_3
X_1468_ clkload2/A _1468_/D _1295_/Y VGND VGND VPWR VPWR _1468_/Q sky130_fd_sc_hd__dfrtp_2
XFILLER_86_136 VGND VGND VPWR VPWR sky130_fd_sc_hd__decap_3
XFILLER_68_840 VGND VGND VPWR VPWR sky130_fd_sc_hd__decap_3
XFILLER_86_147 VGND VGND VPWR VPWR sky130_fd_sc_hd__decap_3
XFILLER_101_458 VGND VGND VPWR VPWR sky130_fd_sc_hd__decap_3
XFILLER_28_704 VGND VGND VPWR VPWR sky130_fd_sc_hd__decap_3
XFILLER_41_1024 VGND VGND VPWR VPWR sky130_fd_sc_hd__decap_3
XFILLER_74_309 VGND VGND VPWR VPWR sky130_fd_sc_hd__decap_3