*SPEF "ieee 1481-1999"
*DESIGN "characterization_top"
*DATE "12:11:43 Tuesday June 23, 2026"
*VENDOR "The OpenROAD Project"
*PROGRAM "OpenROAD"
*VERSION "26Q1-1024-gdcf36133a"
*DESIGN_FLOW "NAME_SCOPE LOCAL" "PIN_CAP NONE"
*DIVIDER /
*DELIMITER :
*BUS_DELIMITER []
*T_UNIT 1 NS
*C_UNIT 1 PF
*R_UNIT 1 OHM
*L_UNIT 1 HENRY

*NAME_MAP
*3 busy
*4 clk
*5 clk_bad_duty
*6 clk_fast
*7 clk_slow
*8 clk_stuck_high
*9 clk_stuck_low
*10 clock_status_reg[0]
*11 clock_status_reg[1]
*12 clock_status_reg[2]
*13 clock_status_reg[3]
*14 clock_status_reg[4]
*15 clock_status_reg[5]
*16 net
*17 net214
*18 corner_class_reg[0]
*19 corner_class_reg[1]
*20 corner_class_reg[2]
*21 delay_count_reg_0[0]
*22 delay_count_reg_0[10]
*23 delay_count_reg_0[11]
*24 delay_count_reg_0[12]
*25 delay_count_reg_0[13]
*26 delay_count_reg_0[14]
*27 delay_count_reg_0[15]
*28 delay_count_reg_0[1]
*29 delay_count_reg_0[2]
*30 delay_count_reg_0[3]
*31 delay_count_reg_0[4]
*32 delay_count_reg_0[5]
*33 delay_count_reg_0[6]
*34 delay_count_reg_0[7]
*35 delay_count_reg_0[8]
*36 delay_count_reg_0[9]
*37 delay_count_reg_1[0]
*38 delay_count_reg_1[10]
*39 delay_count_reg_1[11]
*40 delay_count_reg_1[12]
*41 delay_count_reg_1[13]
*42 delay_count_reg_1[14]
*43 delay_count_reg_1[15]
*44 delay_count_reg_1[1]
*45 delay_count_reg_1[2]
*46 delay_count_reg_1[3]
*47 delay_count_reg_1[4]
*48 delay_count_reg_1[5]
*49 delay_count_reg_1[6]
*50 delay_count_reg_1[7]
*51 delay_count_reg_1[8]
*52 delay_count_reg_1[9]
*53 delay_count_reg_2[0]
*54 delay_count_reg_2[10]
*55 delay_count_reg_2[11]
*56 delay_count_reg_2[12]
*57 delay_count_reg_2[13]
*58 delay_count_reg_2[14]
*59 delay_count_reg_2[15]
*60 delay_count_reg_2[1]
*61 delay_count_reg_2[2]
*62 delay_count_reg_2[3]
*63 delay_count_reg_2[4]
*64 delay_count_reg_2[5]
*65 delay_count_reg_2[6]
*66 delay_count_reg_2[7]
*67 delay_count_reg_2[8]
*68 delay_count_reg_2[9]
*69 done
*70 ro_clk_0
*71 ro_clk_1
*72 ro_clk_2
*73 ro_count_reg_0[0]
*74 ro_count_reg_0[1]
*75 ro_count_reg_0[2]
*76 ro_count_reg_0[3]
*77 ro_count_reg_0[4]
*78 ro_count_reg_0[5]
*79 ro_count_reg_0[6]
*80 ro_count_reg_0[7]
*81 ro_count_reg_1[0]
*82 ro_count_reg_1[1]
*83 ro_count_reg_1[2]
*84 ro_count_reg_1[3]
*85 ro_count_reg_1[4]
*86 ro_count_reg_1[5]
*87 ro_count_reg_1[6]
*88 ro_count_reg_1[7]
*89 ro_count_reg_2[0]
*90 ro_count_reg_2[1]
*91 ro_count_reg_2[2]
*92 ro_count_reg_2[3]
*93 ro_count_reg_2[4]
*94 ro_count_reg_2[5]
*95 ro_count_reg_2[6]
*96 ro_count_reg_2[7]
*97 rst
*98 start
*99 status_reg[0]
*100 status_reg[1]
*101 status_reg[2]
*102 status_reg[3]
*103 status_reg[4]
*104 status_reg[5]
*105 status_reg[6]
*106 status_reg[7]
*107 _0000_
*108 _0001_
*109 _0002_
*110 _0003_
*111 _0004_
*112 _0005_
*113 _0006_
*114 _0007_
*115 _0008_
*116 _0009_
*117 _0010_
*118 _0011_
*119 _0012_
*120 _0013_
*121 _0014_
*122 _0015_
*123 _0016_
*124 _0017_
*125 _0018_
*126 _0019_
*127 _0020_
*128 _0021_
*129 _0022_
*130 _0023_
*131 _0024_
*132 _0025_
*133 _0026_
*134 _0027_
*135 _0028_
*136 _0029_
*137 _0030_
*138 _0031_
*139 _0032_
*140 _0033_
*141 _0034_
*142 _0035_
*143 _0036_
*144 _0037_
*145 _0038_
*146 _0039_
*147 _0040_
*148 _0041_
*149 _0042_
*150 _0043_
*151 _0044_
*152 _0045_
*153 _0046_
*154 _0047_
*155 _0048_
*156 _0049_
*157 _0050_
*158 _0051_
*159 _0052_
*160 _0053_
*161 _0054_
*162 _0055_
*163 _0056_
*164 _0057_
*165 _0058_
*166 _0059_
*167 _0060_
*168 _0061_
*169 _0062_
*170 _0063_
*171 _0064_
*172 _0065_
*173 _0066_
*174 _0067_
*175 _0068_
*176 _0069_
*177 _0070_
*178 _0071_
*179 _0072_
*180 _0073_
*181 _0074_
*182 _0075_
*183 _0076_
*184 _0077_
*185 _0078_
*186 _0079_
*187 _0080_
*188 _0081_
*189 _0082_
*190 _0083_
*191 _0084_
*192 _0085_
*193 _0086_
*194 _0087_
*195 _0088_
*196 _0089_
*197 _0090_
*198 _0091_
*199 _0092_
*200 _0093_
*201 _0094_
*202 _0095_
*203 _0096_
*204 _0097_
*205 _0098_
*206 _0099_
*207 _0100_
*208 _0101_
*209 _0102_
*210 _0103_
*211 _0104_
*212 _0105_
*213 _0106_
*214 _0107_
*215 _0108_
*216 _0109_
*217 _0110_
*218 _0111_
*219 _0112_
*220 _0113_
*221 _0114_
*222 _0115_
*223 _0116_
*224 _0117_
*225 _0118_
*226 _0119_
*227 _0120_
*228 _0121_
*229 _0122_
*230 _0123_
*231 _0124_
*232 _0125_
*233 _0126_
*234 _0127_
*235 _0128_
*236 _0129_
*237 _0130_
*238 _0131_
*239 _0132_
*240 _0133_
*241 _0134_
*242 _0135_
*243 _0136_
*244 _0137_
*245 _0138_
*246 _0139_
*247 _0140_
*248 _0141_
*249 _0142_
*250 _0143_
*251 _0144_
*252 _0145_
*253 _0146_
*254 _0147_
*255 _0148_
*256 _0149_
*257 _0150_
*258 _0151_
*259 _0152_
*260 _0153_
*261 _0154_
*262 _0155_
*263 _0156_
*264 _0157_
*265 _0158_
*266 _0159_
*267 _0160_
*268 _0161_
*269 _0162_
*270 _0163_
*271 _0164_
*272 _0165_
*273 _0166_
*274 _0167_
*275 _0168_
*276 _0169_
*277 _0170_
*278 _0171_
*279 _0172_
*280 _0173_
*281 _0174_
*282 _0175_
*283 _0176_
*284 _0177_
*285 _0178_
*286 _0179_
*287 _0180_
*288 _0181_
*289 _0182_
*290 _0183_
*291 _0184_
*292 _0185_
*293 _0186_
*294 _0187_
*295 _0188_
*296 _0189_
*297 _0190_
*298 _0191_
*299 _0192_
*300 _0193_
*301 _0194_
*302 _0195_
*303 _0196_
*304 _0197_
*305 _0198_
*306 _0199_
*307 _0200_
*308 _0201_
*309 _0202_
*310 _0203_
*311 _0204_
*312 _0205_
*313 _0206_
*314 _0207_
*315 _0208_
*316 _0209_
*317 _0210_
*318 _0211_
*319 _0212_
*320 _0213_
*321 _0214_
*322 _0215_
*323 _0216_
*324 _0217_
*325 _0218_
*326 _0219_
*327 _0220_
*328 _0221_
*329 _0222_
*330 _0223_
*331 _0224_
*332 _0225_
*333 _0226_
*334 _0227_
*335 _0228_
*336 _0229_
*337 _0230_
*338 _0231_
*339 _0232_
*340 _0233_
*341 _0234_
*342 _0235_
*343 _0236_
*344 _0237_
*345 _0238_
*346 _0239_
*347 _0240_
*348 _0241_
*349 _0242_
*350 _0243_
*351 _0244_
*352 _0245_
*353 _0246_
*354 _0247_
*355 _0248_
*356 _0249_
*357 _0250_
*358 _0251_
*359 _0252_
*360 _0253_
*361 _0254_
*362 _0255_
*363 _0256_
*364 _0257_
*365 _0258_
*366 _0259_
*367 _0260_
*368 _0261_
*369 _0262_
*370 _0263_
*371 _0264_
*372 _0265_
*373 _0266_
*374 _0267_
*375 _0268_
*376 _0269_
*377 _0270_
*378 _0271_
*379 _0272_
*380 _0273_
*381 _0274_
*382 _0275_
*383 _0276_
*384 _0277_
*385 _0278_
*386 _0279_
*387 _0280_
*388 _0281_
*389 _0282_
*390 _0283_
*391 _0284_
*392 _0285_
*393 _0286_
*394 _0287_
*395 _0288_
*396 _0289_
*397 _0290_
*398 _0291_
*399 _0292_
*400 _0293_
*401 _0294_
*402 _0295_
*403 _0296_
*404 _0297_
*405 _0298_
*406 _0299_
*407 _0300_
*408 _0301_
*409 _0302_
*410 _0303_
*411 _0304_
*412 _0305_
*413 _0306_
*414 _0307_
*415 _0308_
*416 _0309_
*417 _0310_
*418 _0311_
*419 _0312_
*420 _0313_
*421 _0314_
*422 _0315_
*423 _0316_
*424 _0317_
*425 _0318_
*426 _0319_
*427 _0320_
*428 _0321_
*429 _0322_
*430 _0323_
*431 _0324_
*432 _0325_
*433 _0326_
*434 _0327_
*435 _0328_
*436 _0329_
*437 _0330_
*438 _0331_
*439 _0332_
*440 _0333_
*441 _0334_
*442 _0335_
*443 _0336_
*444 _0337_
*445 _0338_
*446 _0339_
*447 _0340_
*448 _0341_
*449 _0342_
*450 _0343_
*451 _0344_
*452 _0345_
*453 _0346_
*454 _0347_
*455 _0348_
*456 _0349_
*457 _0350_
*458 _0351_
*459 _0352_
*460 _0353_
*461 _0354_
*462 _0355_
*463 _0356_
*464 _0357_
*465 _0358_
*466 _0359_
*467 _0360_
*468 _0361_
*469 _0362_
*470 _0363_
*471 _0364_
*472 _0365_
*473 _0366_
*474 _0367_
*475 _0368_
*476 _0369_
*477 _0370_
*478 _0371_
*479 _0372_
*480 _0373_
*481 _0374_
*482 _0375_
*483 _0376_
*484 _0377_
*485 _0378_
*486 _0379_
*487 _0380_
*488 _0381_
*489 _0382_
*490 _0383_
*491 _0384_
*492 _0385_
*493 _0386_
*494 _0387_
*495 _0388_
*496 _0389_
*497 _0390_
*498 _0391_
*499 _0392_
*500 _0393_
*501 _0394_
*502 _0395_
*503 _0396_
*504 _0397_
*505 _0398_
*506 _0399_
*507 _0400_
*508 _0401_
*509 _0402_
*510 _0403_
*511 _0404_
*512 _0405_
*513 _0406_
*514 _0407_
*515 _0408_
*516 _0409_
*517 _0410_
*518 _0411_
*519 _0412_
*520 _0413_
*521 _0414_
*522 _0415_
*523 _0416_
*524 _0417_
*525 _0418_
*526 _0419_
*527 _0420_
*528 _0421_
*529 _0422_
*530 _0423_
*531 _0424_
*532 _0425_
*533 _0426_
*534 _0427_
*535 _0428_
*536 _0429_
*537 _0430_
*538 _0431_
*539 _0432_
*540 _0433_
*541 _0434_
*542 _0435_
*543 _0436_
*544 _0437_
*545 _0438_
*546 _0439_
*547 _0440_
*548 _0441_
*549 _0442_
*550 _0443_
*551 _0444_
*552 _0445_
*553 _0446_
*554 _0447_
*555 _0448_
*556 _0449_
*557 _0450_
*558 _0451_
*559 _0452_
*560 _0453_
*561 _0454_
*562 _0455_
*563 _0456_
*564 _0457_
*565 _0458_
*566 _0459_
*567 _0460_
*568 _0461_
*569 _0462_
*570 _0463_
*571 _0464_
*572 _0465_
*573 _0466_
*574 _0467_
*575 _0468_
*576 _0469_
*577 _0470_
*578 _0471_
*579 _0472_
*580 _0473_
*581 _0474_
*582 _0475_
*583 _0476_
*584 _0477_
*585 _0478_
*586 _0479_
*587 _0480_
*588 _0481_
*589 _0482_
*590 _0483_
*591 _0484_
*592 _0485_
*593 _0486_
*594 _0487_
*595 _0488_
*596 _0489_
*597 _0490_
*598 _0491_
*599 _0492_
*600 _0493_
*601 _0494_
*602 _0495_
*603 _0496_
*604 _0497_
*605 _0498_
*606 _0499_
*607 _0500_
*608 _0501_
*609 _0502_
*610 _0503_
*611 _0504_
*612 _0505_
*613 _0506_
*614 _0507_
*615 _0508_
*616 _0509_
*617 _0510_
*618 _0511_
*619 _0512_
*620 _0513_
*621 _0514_
*622 _0515_
*623 _0516_
*624 _0517_
*625 _0518_
*626 _0519_
*627 _0520_
*628 _0521_
*629 _0522_
*630 _0523_
*631 _0524_
*632 _0525_
*633 _0526_
*634 _0527_
*635 _0528_
*636 _0529_
*637 _0530_
*638 _0531_
*639 _0532_
*640 _0533_
*641 _0534_
*642 _0535_
*643 _0536_
*644 _0537_
*645 _0538_
*646 _0539_
*647 _0540_
*648 _0541_
*649 _0542_
*650 _0543_
*651 _0544_
*652 _0545_
*653 _0546_
*654 _0547_
*655 _0548_
*656 _0549_
*657 _0550_
*658 _0551_
*659 _0552_
*660 _0553_
*661 _0554_
*662 _0555_
*663 _0556_
*664 _0557_
*665 _0558_
*666 _0559_
*667 _0560_
*668 _0561_
*669 _0562_
*670 _0563_
*671 _0564_
*672 _0565_
*673 _0566_
*674 _0567_
*675 _0568_
*676 _0569_
*677 _0570_
*678 _0571_
*679 _0572_
*680 _0573_
*681 _0574_
*682 _0575_
*683 _0576_
*684 _0577_
*685 _0578_
*686 _0579_
*687 _0580_
*688 _0581_
*689 _0582_
*690 _0583_
*691 _0584_
*692 _0585_
*693 _0586_
*694 _0587_
*695 _0588_
*696 _0589_
*697 _0590_
*698 _0591_
*699 _0592_
*700 _0593_
*701 _0594_
*702 _0595_
*703 _0596_
*704 _0597_
*705 _0598_
*706 _0599_
*707 _0600_
*708 _0601_
*709 _0602_
*710 _0603_
*711 _0604_
*712 _0605_
*713 _0606_
*714 _0607_
*715 _0608_
*716 _0609_
*717 _0610_
*718 _0611_
*719 _0612_
*720 _0613_
*721 _0614_
*722 _0615_
*723 _0616_
*724 _0617_
*725 _0618_
*726 _0619_
*727 _0620_
*728 _0621_
*729 _0622_
*730 _0623_
*731 _0624_
*732 _0625_
*733 _0626_
*734 _0627_
*735 _0628_
*736 _0629_
*737 _0630_
*738 _0631_
*739 _0632_
*740 _0633_
*741 _0634_
*742 _0635_
*743 _0636_
*744 _0637_
*745 _0638_
*746 _0639_
*747 _0640_
*748 _0641_
*749 _0642_
*750 _0643_
*751 _0644_
*752 _0645_
*753 _0646_
*754 _0647_
*755 _0648_
*756 _0649_
*757 _0650_
*758 _0651_
*759 _0652_
*760 _0653_
*761 _0654_
*762 _0655_
*763 _0656_
*764 _0657_
*765 _0658_
*766 _0659_
*767 _0660_
*768 _0661_
*769 _0662_
*770 _0663_
*771 _0664_
*772 _0665_
*773 _0666_
*774 _0667_
*775 _0668_
*776 _0669_
*777 _0670_
*778 _0671_
*779 _0672_
*780 _0673_
*781 _0674_
*782 _0675_
*783 _0676_
*784 _0677_
*785 _0678_
*786 _0679_
*787 _0680_
*788 _0681_
*789 _0682_
*790 _0683_
*791 _0684_
*792 _0685_
*793 _0686_
*794 _0687_
*795 _0688_
*796 _0689_
*797 _0690_
*798 _0691_
*799 _0692_
*800 _0693_
*801 _0694_
*802 _0695_
*803 _0696_
*804 _0697_
*805 _0698_
*806 _0699_
*807 _0700_
*808 _0701_
*809 _0702_
*810 _0703_
*811 _0704_
*812 _0705_
*813 _0706_
*814 _0707_
*815 _0708_
*816 _0709_
*817 _0710_
*818 _0711_
*819 _0712_
*820 _0713_
*821 _0714_
*822 _0715_
*823 _0716_
*824 _0717_
*825 _0718_
*826 _0719_
*827 _0720_
*828 _0721_
*829 _0722_
*830 _0723_
*831 _0724_
*832 _0725_
*833 _0726_
*834 _0727_
*835 _0728_
*836 _0729_
*837 _0730_
*838 _0731_
*839 clknet_0_clk
*840 clknet_2_0__leaf_clk
*841 clknet_2_1__leaf_clk
*842 clknet_2_2__leaf_clk
*843 clknet_2_3__leaf_clk
*844 clknet_leaf_0_clk
*845 clknet_leaf_10_clk
*846 clknet_leaf_11_clk
*847 clknet_leaf_12_clk
*848 clknet_leaf_13_clk
*849 clknet_leaf_14_clk
*850 clknet_leaf_15_clk
*851 clknet_leaf_16_clk
*852 clknet_leaf_17_clk
*853 clknet_leaf_18_clk
*854 clknet_leaf_19_clk
*855 clknet_leaf_1_clk
*856 clknet_leaf_20_clk
*857 clknet_leaf_21_clk
*858 clknet_leaf_22_clk
*859 clknet_leaf_23_clk
*860 clknet_leaf_2_clk
*861 clknet_leaf_3_clk
*862 clknet_leaf_4_clk
*863 clknet_leaf_5_clk
*864 clknet_leaf_6_clk
*865 clknet_leaf_7_clk
*866 clknet_leaf_8_clk
*867 clknet_leaf_9_clk
*868 delay_chain_inst\.chain_0\[0\]
*869 delay_chain_inst\.chain_0\[1\]
*870 delay_chain_inst\.chain_0\[2\]
*871 delay_chain_inst\.chain_0\[3\]
*872 delay_chain_inst\.chain_0\[4\]
*873 delay_chain_inst\.chain_0\[5\]
*874 delay_chain_inst\.chain_0\[6\]
*875 delay_chain_inst\.chain_0\[7\]
*876 delay_chain_inst\.chain_0_done
*877 delay_chain_inst\.chain_1\[10\]
*878 delay_chain_inst\.chain_1\[11\]
*879 delay_chain_inst\.chain_1\[12\]
*880 delay_chain_inst\.chain_1\[13\]
*881 delay_chain_inst\.chain_1\[14\]
*882 delay_chain_inst\.chain_1\[15\]
*883 delay_chain_inst\.chain_1\[8\]
*884 delay_chain_inst\.chain_1\[9\]
*885 delay_chain_inst\.chain_1_done
*886 delay_chain_inst\.chain_2\[16\]
*887 delay_chain_inst\.chain_2\[17\]
*888 delay_chain_inst\.chain_2\[18\]
*889 delay_chain_inst\.chain_2\[19\]
*890 delay_chain_inst\.chain_2\[20\]
*891 delay_chain_inst\.chain_2\[21\]
*892 delay_chain_inst\.chain_2\[22\]
*893 delay_chain_inst\.chain_2\[23\]
*894 delay_chain_inst\.chain_2\[24\]
*895 delay_chain_inst\.chain_2\[25\]
*896 delay_chain_inst\.chain_2\[26\]
*897 delay_chain_inst\.chain_2\[27\]
*898 delay_chain_inst\.chain_2\[28\]
*899 delay_chain_inst\.chain_2\[29\]
*900 delay_chain_inst\.chain_2\[30\]
*901 delay_chain_inst\.chain_2\[31\]
*902 delay_chain_inst\.chain_2_done
*903 delay_chain_inst\.cycle_count\[0\]
*904 delay_chain_inst\.cycle_count\[10\]
*905 delay_chain_inst\.cycle_count\[11\]
*906 delay_chain_inst\.cycle_count\[12\]
*907 delay_chain_inst\.cycle_count\[13\]
*908 delay_chain_inst\.cycle_count\[14\]
*909 delay_chain_inst\.cycle_count\[15\]
*910 delay_chain_inst\.cycle_count\[1\]
*911 delay_chain_inst\.cycle_count\[2\]
*912 delay_chain_inst\.cycle_count\[3\]
*913 delay_chain_inst\.cycle_count\[4\]
*914 delay_chain_inst\.cycle_count\[5\]
*915 delay_chain_inst\.cycle_count\[6\]
*916 delay_chain_inst\.cycle_count\[7\]
*917 delay_chain_inst\.cycle_count\[8\]
*918 delay_chain_inst\.cycle_count\[9\]
*919 delay_chain_inst\.delay_count_0\[0\]
*920 delay_chain_inst\.delay_count_0\[10\]
*921 delay_chain_inst\.delay_count_0\[11\]
*922 delay_chain_inst\.delay_count_0\[12\]
*923 delay_chain_inst\.delay_count_0\[13\]
*924 delay_chain_inst\.delay_count_0\[14\]
*925 delay_chain_inst\.delay_count_0\[15\]
*926 delay_chain_inst\.delay_count_0\[1\]
*927 delay_chain_inst\.delay_count_0\[2\]
*928 delay_chain_inst\.delay_count_0\[3\]
*929 delay_chain_inst\.delay_count_0\[4\]
*930 delay_chain_inst\.delay_count_0\[5\]
*931 delay_chain_inst\.delay_count_0\[6\]
*932 delay_chain_inst\.delay_count_0\[7\]
*933 delay_chain_inst\.delay_count_0\[8\]
*934 delay_chain_inst\.delay_count_0\[9\]
*935 delay_chain_inst\.delay_count_1\[0\]
*936 delay_chain_inst\.delay_count_1\[10\]
*937 delay_chain_inst\.delay_count_1\[11\]
*938 delay_chain_inst\.delay_count_1\[12\]
*939 delay_chain_inst\.delay_count_1\[13\]
*940 delay_chain_inst\.delay_count_1\[14\]
*941 delay_chain_inst\.delay_count_1\[15\]
*942 delay_chain_inst\.delay_count_1\[1\]
*943 delay_chain_inst\.delay_count_1\[2\]
*944 delay_chain_inst\.delay_count_1\[3\]
*945 delay_chain_inst\.delay_count_1\[4\]
*946 delay_chain_inst\.delay_count_1\[5\]
*947 delay_chain_inst\.delay_count_1\[6\]
*948 delay_chain_inst\.delay_count_1\[7\]
*949 delay_chain_inst\.delay_count_1\[8\]
*950 delay_chain_inst\.delay_count_1\[9\]
*951 delay_chain_inst\.delay_count_2\[0\]
*952 delay_chain_inst\.delay_count_2\[10\]
*953 delay_chain_inst\.delay_count_2\[11\]
*954 delay_chain_inst\.delay_count_2\[12\]
*955 delay_chain_inst\.delay_count_2\[13\]
*956 delay_chain_inst\.delay_count_2\[14\]
*957 delay_chain_inst\.delay_count_2\[15\]
*958 delay_chain_inst\.delay_count_2\[1\]
*959 delay_chain_inst\.delay_count_2\[2\]
*960 delay_chain_inst\.delay_count_2\[3\]
*961 delay_chain_inst\.delay_count_2\[4\]
*962 delay_chain_inst\.delay_count_2\[5\]
*963 delay_chain_inst\.delay_count_2\[6\]
*964 delay_chain_inst\.delay_count_2\[7\]
*965 delay_chain_inst\.delay_count_2\[8\]
*966 delay_chain_inst\.delay_count_2\[9\]
*967 delay_chain_inst\.delay_status\[0\]
*968 delay_chain_inst\.delay_status\[2\]
*969 delay_chain_inst\.done
*970 delay_chain_inst\.measuring
*971 delay_chain_inst\.start
*972 delay_chain_inst\.start_prev
*973 net1
*974 net10
*975 net100
*976 net101
*977 net102
*978 net103
*979 net104
*980 net105
*981 net106
*982 net107
*983 net108
*984 net109
*985 net11
*986 net110
*987 net111
*988 net112
*989 net113
*990 net114
*991 net115
*992 net116
*993 net117
*994 net118
*995 net119
*996 net12
*997 net120
*998 net121
*999 net122
*1000 net123
*1001 net124
*1002 net125
*1003 net126
*1004 net127
*1005 net128
*1006 net129
*1007 net13
*1008 net130
*1009 net131
*1010 net132
*1011 net133
*1012 net134
*1013 net135
*1014 net136
*1015 net137
*1016 net138
*1017 net139
*1018 net14
*1019 net140
*1020 net141
*1021 net142
*1022 net143
*1023 net144
*1024 net145
*1025 net146
*1026 net147
*1027 net148
*1028 net149
*1029 net15
*1030 net150
*1031 net151
*1032 net152
*1033 net153
*1034 net154
*1035 net155
*1036 net156
*1037 net157
*1038 net158
*1039 net159
*1040 net16
*1041 net160
*1042 net161
*1043 net162
*1044 net163
*1045 net164
*1046 net165
*1047 net166
*1048 net167
*1049 net168
*1050 net169
*1051 net17
*1052 net170
*1053 net171
*1054 net172
*1055 net173
*1056 net174
*1057 net175
*1058 net176
*1059 net177
*1060 net178
*1061 net179
*1062 net18
*1063 net180
*1064 net181
*1065 net182
*1066 net183
*1067 net184
*1068 net185
*1069 net186
*1070 net187
*1071 net188
*1072 net189
*1073 net19
*1074 net190
*1075 net191
*1076 net192
*1077 net193
*1078 net194
*1079 net195
*1080 net196
*1081 net197
*1082 net198
*1083 net199
*1084 net2
*1085 net20
*1086 net200
*1087 net201
*1088 net202
*1089 net203
*1090 net204
*1091 net205
*1092 net206
*1093 net207
*1094 net208
*1095 net209
*1096 net21
*1097 net210
*1098 net211
*1099 net212
*1100 net213
*1101 net215
*1102 net216
*1103 net217
*1104 net218
*1105 net219
*1106 net22
*1107 net220
*1108 net221
*1109 net222
*1110 net223
*1111 net224
*1112 net225
*1113 net226
*1114 net227
*1115 net228
*1116 net229
*1117 net23
*1118 net230
*1119 net231
*1120 net232
*1121 net233
*1122 net234
*1123 net235
*1124 net236
*1125 net237
*1126 net238
*1127 net239
*1128 net24
*1129 net240
*1130 net241
*1131 net242
*1132 net243
*1133 net244
*1134 net245
*1135 net246
*1136 net247
*1137 net248
*1138 net249
*1139 net25
*1140 net250
*1141 net251
*1142 net252
*1143 net253
*1144 net254
*1145 net255
*1146 net256
*1147 net257
*1148 net258
*1149 net259
*1150 net26
*1151 net260
*1152 net261
*1153 net262
*1154 net263
*1155 net264
*1156 net265
*1157 net266
*1158 net267
*1159 net268
*1160 net269
*1161 net27
*1162 net270
*1163 net271
*1164 net272
*1165 net273
*1166 net274
*1167 net275
*1168 net276
*1169 net277
*1170 net278
*1171 net279
*1172 net28
*1173 net280
*1174 net281
*1175 net282
*1176 net283
*1177 net284
*1178 net285
*1179 net286
*1180 net287
*1181 net288
*1182 net289
*1183 net29
*1184 net290
*1185 net291
*1186 net292
*1187 net293
*1188 net294
*1189 net295
*1190 net296
*1191 net297
*1192 net298
*1193 net299
*1194 net3
*1195 net30
*1196 net300
*1197 net301
*1198 net302
*1199 net303
*1200 net304
*1201 net305
*1202 net306
*1203 net307
*1204 net308
*1205 net309
*1206 net31
*1207 net310
*1208 net311
*1209 net312
*1210 net313
*1211 net314
*1212 net315
*1213 net316
*1214 net317
*1215 net318
*1216 net319
*1217 net32
*1218 net320
*1219 net321
*1220 net322
*1221 net323
*1222 net324
*1223 net325
*1224 net326
*1225 net327
*1226 net328
*1227 net329
*1228 net33
*1229 net330
*1230 net331
*1231 net332
*1232 net333
*1233 net334
*1234 net335
*1235 net336
*1236 net337
*1237 net338
*1238 net339
*1239 net34
*1240 net340
*1241 net341
*1242 net342
*1243 net343
*1244 net344
*1245 net345
*1246 net346
*1247 net347
*1248 net348
*1249 net349
*1250 net35
*1251 net350
*1252 net351
*1253 net352
*1254 net353
*1255 net354
*1256 net355
*1257 net356
*1258 net357
*1259 net358
*1260 net359
*1261 net36
*1262 net360
*1263 net361
*1264 net362
*1265 net363
*1266 net364
*1267 net365
*1268 net366
*1269 net367
*1270 net368
*1271 net369
*1272 net37
*1273 net370
*1274 net371
*1275 net372
*1276 net373
*1277 net374
*1278 net375
*1279 net376
*1280 net377
*1281 net378
*1282 net379
*1283 net38
*1284 net380
*1285 net381
*1286 net382
*1287 net383
*1288 net384
*1289 net385
*1290 net386
*1291 net387
*1292 net388
*1293 net389
*1294 net39
*1295 net390
*1296 net391
*1297 net392
*1298 net393
*1299 net394
*1300 net395
*1301 net396
*1302 net397
*1303 net398
*1304 net399
*1305 net4
*1306 net40
*1307 net400
*1308 net401
*1309 net402
*1310 net403
*1311 net404
*1312 net405
*1313 net406
*1314 net407
*1315 net408
*1316 net409
*1317 net41
*1318 net410
*1319 net411
*1320 net412
*1321 net413
*1322 net414
*1323 net415
*1324 net416
*1325 net417
*1326 net418
*1327 net419
*1328 net42
*1329 net420
*1330 net421
*1331 net422
*1332 net423
*1333 net424
*1334 net425
*1335 net426
*1336 net427
*1337 net428
*1338 net429
*1339 net43
*1340 net430
*1341 net431
*1342 net432
*1343 net433
*1344 net434
*1345 net435
*1346 net436
*1347 net437
*1348 net438
*1349 net439
*1350 net44
*1351 net440
*1352 net441
*1353 net442
*1354 net443
*1355 net444
*1356 net445
*1357 net446
*1358 net447
*1359 net448
*1360 net449
*1361 net45
*1362 net450
*1363 net451
*1364 net452
*1365 net453
*1366 net454
*1367 net455
*1368 net456
*1369 net457
*1370 net458
*1371 net459
*1372 net46
*1373 net460
*1374 net461
*1375 net462
*1376 net463
*1377 net464
*1378 net465
*1379 net466
*1380 net467
*1381 net47
*1382 net48
*1383 net49
*1384 net5
*1385 net50
*1386 net51
*1387 net52
*1388 net53
*1389 net54
*1390 net55
*1391 net56
*1392 net57
*1393 net58
*1394 net59
*1395 net6
*1396 net60
*1397 net61
*1398 net62
*1399 net63
*1400 net64
*1401 net65
*1402 net66
*1403 net67
*1404 net68
*1405 net69
*1406 net7
*1407 net70
*1408 net71
*1409 net72
*1410 net73
*1411 net74
*1412 net75
*1413 net76
*1414 net77
*1415 net78
*1416 net79
*1417 net8
*1418 net80
*1419 net81
*1420 net82
*1421 net83
*1422 net84
*1423 net85
*1424 net86
*1425 net87
*1426 net88
*1427 net89
*1428 net9
*1429 net90
*1430 net91
*1431 net92
*1432 net93
*1433 net94
*1434 net95
*1435 net96
*1436 net97
*1437 net98
*1438 net99
*1439 ro_count_0\[0\]
*1440 ro_count_0\[1\]
*1441 ro_count_0\[2\]
*1442 ro_count_0\[3\]
*1443 ro_count_0\[4\]
*1444 ro_count_0\[5\]
*1445 ro_count_0\[6\]
*1446 ro_count_0\[7\]
*1447 ro_count_1\[0\]
*1448 ro_count_1\[1\]
*1449 ro_count_1\[2\]
*1450 ro_count_1\[3\]
*1451 ro_count_1\[4\]
*1452 ro_count_1\[5\]
*1453 ro_count_1\[6\]
*1454 ro_count_1\[7\]
*1455 ro_count_2\[0\]
*1456 ro_count_2\[1\]
*1457 ro_count_2\[2\]
*1458 ro_count_2\[3\]
*1459 ro_count_2\[4\]
*1460 ro_count_2\[5\]
*1461 ro_count_2\[6\]
*1462 ro_count_2\[7\]
*1463 ro_counter_inst\.count_0\[0\]
*1464 ro_counter_inst\.count_0\[1\]
*1465 ro_counter_inst\.count_0\[2\]
*1466 ro_counter_inst\.count_0\[3\]
*1467 ro_counter_inst\.count_0\[4\]
*1468 ro_counter_inst\.count_0\[5\]
*1469 ro_counter_inst\.count_0\[6\]
*1470 ro_counter_inst\.count_0\[7\]
*1471 ro_counter_inst\.count_1\[0\]
*1472 ro_counter_inst\.count_1\[1\]
*1473 ro_counter_inst\.count_1\[2\]
*1474 ro_counter_inst\.count_1\[3\]
*1475 ro_counter_inst\.count_1\[4\]
*1476 ro_counter_inst\.count_1\[5\]
*1477 ro_counter_inst\.count_1\[6\]
*1478 ro_counter_inst\.count_1\[7\]
*1479 ro_counter_inst\.count_2\[0\]
*1480 ro_counter_inst\.count_2\[1\]
*1481 ro_counter_inst\.count_2\[2\]
*1482 ro_counter_inst\.count_2\[3\]
*1483 ro_counter_inst\.count_2\[4\]
*1484 ro_counter_inst\.count_2\[5\]
*1485 ro_counter_inst\.count_2\[6\]
*1486 ro_counter_inst\.count_2\[7\]
*1487 ro_counter_inst\.done
*1488 ro_counter_inst\.fault
*1489 ro_counter_inst\.measurement_window\[0\]
*1490 ro_counter_inst\.measurement_window\[1\]
*1491 ro_counter_inst\.measurement_window\[2\]
*1492 ro_counter_inst\.measurement_window\[3\]
*1493 ro_counter_inst\.measurement_window\[4\]
*1494 ro_counter_inst\.measurement_window\[5\]
*1495 ro_counter_inst\.measurement_window\[6\]
*1496 ro_counter_inst\.measurement_window\[7\]
*1497 ro_counter_inst\.measurement_window\[8\]
*1498 ro_counter_inst\.measurement_window\[9\]
*1499 ro_counter_inst\.measuring
*1500 ro_counter_inst\.prev_rclk_0
*1501 ro_counter_inst\.prev_rclk_1
*1502 ro_counter_inst\.prev_rclk_2
*1503 ro_counter_inst\.start
*1504 ro_counter_inst\.start_prev
*1505 ro_counter_inst\.warning
*1506 start_prev
*1507 state\[0\]
*1508 state\[1\]
*1509 state\[2\]
*1510 state\[3\]
*1511 state\[4\]
*1512 state\[5\]
*1513 state\[6\]
*1514 ANTENNA_1
*1515 ANTENNA_2
*1516 ANTENNA_3
*1517 FILLER_0_100
*1518 FILLER_0_1002
*1519 FILLER_0_1005
*1520 FILLER_0_1009
*1521 FILLER_0_1012
*1522 FILLER_0_1015
*1523 FILLER_0_1018
*1524 FILLER_0_1021
*1525 FILLER_0_1024
*1526 FILLER_0_1027
*1527 FILLER_0_103
*1528 FILLER_0_1030
*1529 FILLER_0_1033
*1530 FILLER_0_1037
*1531 FILLER_0_1040
*1532 FILLER_0_1043
*1533 FILLER_0_1046
*1534 FILLER_0_1049
*1535 FILLER_0_1052
*1536 FILLER_0_1055
*1537 FILLER_0_1058
*1538 FILLER_0_106
*1539 FILLER_0_109
*1540 FILLER_0_113
*1541 FILLER_0_116
*1542 FILLER_0_119
*1543 FILLER_0_12
*1544 FILLER_0_122
*1545 FILLER_0_125
*1546 FILLER_0_128
*1547 FILLER_0_131
*1548 FILLER_0_134
*1549 FILLER_0_137
*1550 FILLER_0_141
*1551 FILLER_0_144
*1552 FILLER_0_147
*1553 FILLER_0_15
*1554 FILLER_0_150
*1555 FILLER_0_153
*1556 FILLER_0_156
*1557 FILLER_0_159
*1558 FILLER_0_162
*1559 FILLER_0_165
*1560 FILLER_0_169
*1561 FILLER_0_172
*1562 FILLER_0_175
*1563 FILLER_0_178
*1564 FILLER_0_18
*1565 FILLER_0_181
*1566 FILLER_0_184
*1567 FILLER_0_187
*1568 FILLER_0_190
*1569 FILLER_0_193
*1570 FILLER_0_197
*1571 FILLER_0_200
*1572 FILLER_0_203
*1573 FILLER_0_206
*1574 FILLER_0_209
*1575 FILLER_0_21
*1576 FILLER_0_212
*1577 FILLER_0_215
*1578 FILLER_0_218
*1579 FILLER_0_221
*1580 FILLER_0_225
*1581 FILLER_0_228
*1582 FILLER_0_231
*1583 FILLER_0_234
*1584 FILLER_0_237
*1585 FILLER_0_24
*1586 FILLER_0_240
*1587 FILLER_0_243
*1588 FILLER_0_246
*1589 FILLER_0_249
*1590 FILLER_0_253
*1591 FILLER_0_256
*1592 FILLER_0_259
*1593 FILLER_0_262
*1594 FILLER_0_265
*1595 FILLER_0_268
*1596 FILLER_0_27
*1597 FILLER_0_271
*1598 FILLER_0_274
*1599 FILLER_0_277
*1600 FILLER_0_281
*1601 FILLER_0_284
*1602 FILLER_0_287
*1603 FILLER_0_29
*1604 FILLER_0_290
*1605 FILLER_0_293
*1606 FILLER_0_296
*1607 FILLER_0_299
*1608 FILLER_0_3
*1609 FILLER_0_302
*1610 FILLER_0_305
*1611 FILLER_0_309
*1612 FILLER_0_312
*1613 FILLER_0_315
*1614 FILLER_0_318
*1615 FILLER_0_32
*1616 FILLER_0_321
*1617 FILLER_0_324
*1618 FILLER_0_327
*1619 FILLER_0_330
*1620 FILLER_0_333
*1621 FILLER_0_337
*1622 FILLER_0_340
*1623 FILLER_0_343
*1624 FILLER_0_346
*1625 FILLER_0_349
*1626 FILLER_0_35
*1627 FILLER_0_352
*1628 FILLER_0_355
*1629 FILLER_0_358
*1630 FILLER_0_361
*1631 FILLER_0_365
*1632 FILLER_0_368
*1633 FILLER_0_371
*1634 FILLER_0_374
*1635 FILLER_0_377
*1636 FILLER_0_38
*1637 FILLER_0_380
*1638 FILLER_0_383
*1639 FILLER_0_386
*1640 FILLER_0_389
*1641 FILLER_0_393
*1642 FILLER_0_398
*1643 FILLER_0_401
*1644 FILLER_0_404
*1645 FILLER_0_407
*1646 FILLER_0_41
*1647 FILLER_0_410
*1648 FILLER_0_413
*1649 FILLER_0_416
*1650 FILLER_0_419
*1651 FILLER_0_421
*1652 FILLER_0_44
*1653 FILLER_0_449
*1654 FILLER_0_47
*1655 FILLER_0_50
*1656 FILLER_0_505
*1657 FILLER_0_53
*1658 FILLER_0_541
*1659 FILLER_0_558
*1660 FILLER_0_57
*1661 FILLER_0_6
*1662 FILLER_0_60
*1663 FILLER_0_63
*1664 FILLER_0_641
*1665 FILLER_0_645
*1666 FILLER_0_66
*1667 FILLER_0_668
*1668 FILLER_0_671
*1669 FILLER_0_69
*1670 FILLER_0_697
*1671 FILLER_0_709
*1672 FILLER_0_712
*1673 FILLER_0_715
*1674 FILLER_0_718
*1675 FILLER_0_72
*1676 FILLER_0_721
*1677 FILLER_0_724
*1678 FILLER_0_727
*1679 FILLER_0_729
*1680 FILLER_0_732
*1681 FILLER_0_735
*1682 FILLER_0_738
*1683 FILLER_0_741
*1684 FILLER_0_744
*1685 FILLER_0_747
*1686 FILLER_0_75
*1687 FILLER_0_750
*1688 FILLER_0_753
*1689 FILLER_0_757
*1690 FILLER_0_760
*1691 FILLER_0_763
*1692 FILLER_0_766
*1693 FILLER_0_769
*1694 FILLER_0_772
*1695 FILLER_0_775
*1696 FILLER_0_778
*1697 FILLER_0_78
*1698 FILLER_0_781
*1699 FILLER_0_785
*1700 FILLER_0_788
*1701 FILLER_0_791
*1702 FILLER_0_794
*1703 FILLER_0_797
*1704 FILLER_0_800
*1705 FILLER_0_803
*1706 FILLER_0_806
*1707 FILLER_0_809
*1708 FILLER_0_81
*1709 FILLER_0_813
*1710 FILLER_0_816
*1711 FILLER_0_819
*1712 FILLER_0_822
*1713 FILLER_0_825
*1714 FILLER_0_828
*1715 FILLER_0_831
*1716 FILLER_0_834
*1717 FILLER_0_837
*1718 FILLER_0_841
*1719 FILLER_0_844
*1720 FILLER_0_847
*1721 FILLER_0_85
*1722 FILLER_0_850
*1723 FILLER_0_853
*1724 FILLER_0_856
*1725 FILLER_0_859
*1726 FILLER_0_862
*1727 FILLER_0_865
*1728 FILLER_0_869
*1729 FILLER_0_872
*1730 FILLER_0_875
*1731 FILLER_0_878
*1732 FILLER_0_88
*1733 FILLER_0_881
*1734 FILLER_0_884
*1735 FILLER_0_887
*1736 FILLER_0_890
*1737 FILLER_0_893
*1738 FILLER_0_897
*1739 FILLER_0_9
*1740 FILLER_0_900
*1741 FILLER_0_903
*1742 FILLER_0_906
*1743 FILLER_0_909
*1744 FILLER_0_91
*1745 FILLER_0_912
*1746 FILLER_0_915
*1747 FILLER_0_918
*1748 FILLER_0_921
*1749 FILLER_0_925
*1750 FILLER_0_928
*1751 FILLER_0_931
*1752 FILLER_0_934
*1753 FILLER_0_937
*1754 FILLER_0_94
*1755 FILLER_0_940
*1756 FILLER_0_943
*1757 FILLER_0_946
*1758 FILLER_0_949
*1759 FILLER_0_953
*1760 FILLER_0_956
*1761 FILLER_0_959
*1762 FILLER_0_962
*1763 FILLER_0_965
*1764 FILLER_0_968
*1765 FILLER_0_97
*1766 FILLER_0_971
*1767 FILLER_0_974
*1768 FILLER_0_977
*1769 FILLER_0_981
*1770 FILLER_0_984
*1771 FILLER_0_987
*1772 FILLER_0_990
*1773 FILLER_0_993
*1774 FILLER_0_996
*1775 FILLER_0_999
*1776 FILLER_100_100
*1777 FILLER_100_1002
*1778 FILLER_100_1005
*1779 FILLER_100_1008
*1780 FILLER_100_1011
*1781 FILLER_100_1014
*1782 FILLER_100_1017
*1783 FILLER_100_1020
*1784 FILLER_100_1023
*1785 FILLER_100_1026
*1786 FILLER_100_1029
*1787 FILLER_100_103
*1788 FILLER_100_1032
*1789 FILLER_100_1035
*1790 FILLER_100_1037
*1791 FILLER_100_1040
*1792 FILLER_100_1043
*1793 FILLER_100_1046
*1794 FILLER_100_1049
*1795 FILLER_100_106
*1796 FILLER_100_109
*1797 FILLER_100_112
*1798 FILLER_100_115
*1799 FILLER_100_118
*1800 FILLER_100_12
*1801 FILLER_100_121