*SPEF "ieee 1481-1999"
*DESIGN "ro_physical_top"
*DATE "10:37:49 Tuesday July 07, 2026"
*VENDOR "The OpenROAD Project"
*PROGRAM "OpenROAD"
*VERSION "26Q1-1024-gdcf36133a"
*DESIGN_FLOW "NAME_SCOPE LOCAL" "PIN_CAP NONE"
*DIVIDER /
*DELIMITER :
*BUS_DELIMITER []
*T_UNIT 1 NS
*C_UNIT 1 PF
*R_UNIT 1 OHM
*L_UNIT 1 HENRY

*NAME_MAP
*3 enable
*4 ro_out
*5 n0
*6 n1
*7 n2
*8 n3
*9 n4
*10 net1
*11 net2
*12 FILLER_0_107
*13 FILLER_0_110
*14 FILLER_0_113
*15 FILLER_0_116
*16 FILLER_0_119
*17 FILLER_0_12
*18 FILLER_0_122
*19 FILLER_0_125
*20 FILLER_0_128
*21 FILLER_0_131
*22 FILLER_0_134
*23 FILLER_0_137
*24 FILLER_0_141
*25 FILLER_0_144
*26 FILLER_0_147
*27 FILLER_0_15
*28 FILLER_0_150
*29 FILLER_0_153
*30 FILLER_0_156
*31 FILLER_0_159
*32 FILLER_0_162
*33 FILLER_0_165
*34 FILLER_0_169
*35 FILLER_0_172
*36 FILLER_0_175
*37 FILLER_0_178
*38 FILLER_0_18
*39 FILLER_0_181
*40 FILLER_0_184
*41 FILLER_0_187
*42 FILLER_0_21
*43 FILLER_0_24
*44 FILLER_0_27
*45 FILLER_0_29
*46 FILLER_0_3
*47 FILLER_0_32
*48 FILLER_0_35
*49 FILLER_0_38
*50 FILLER_0_41
*51 FILLER_0_44
*52 FILLER_0_47
*53 FILLER_0_50
*54 FILLER_0_53
*55 FILLER_0_57
*56 FILLER_0_6
*57 FILLER_0_60
*58 FILLER_0_63
*59 FILLER_0_66
*60 FILLER_0_69
*61 FILLER_0_72
*62 FILLER_0_75
*63 FILLER_0_78
*64 FILLER_0_81
*65 FILLER_0_85
*66 FILLER_0_88
*67 FILLER_0_9
*68 FILLER_0_91
*69 FILLER_10_100
*70 FILLER_10_103
*71 FILLER_10_106
*72 FILLER_10_109
*73 FILLER_10_112
*74 FILLER_10_115
*75 FILLER_10_118
*76 FILLER_10_12
*77 FILLER_10_121
*78 FILLER_10_124
*79 FILLER_10_127
*80 FILLER_10_130
*81 FILLER_10_133
*82 FILLER_10_136
*83 FILLER_10_139
*84 FILLER_10_141
*85 FILLER_10_144
*86 FILLER_10_147
*87 FILLER_10_15
*88 FILLER_10_150
*89 FILLER_10_153
*90 FILLER_10_156
*91 FILLER_10_159
*92 FILLER_10_162
*93 FILLER_10_165
*94 FILLER_10_168
*95 FILLER_10_171
*96 FILLER_10_174
*97 FILLER_10_177
*98 FILLER_10_18
*99 FILLER_10_180
*100 FILLER_10_183
*101 FILLER_10_186
*102 FILLER_10_189
*103 FILLER_10_21
*104 FILLER_10_24
*105 FILLER_10_27
*106 FILLER_10_29
*107 FILLER_10_3
*108 FILLER_10_32
*109 FILLER_10_35
*110 FILLER_10_38
*111 FILLER_10_41
*112 FILLER_10_44
*113 FILLER_10_47
*114 FILLER_10_50
*115 FILLER_10_53
*116 FILLER_10_56
*117 FILLER_10_59
*118 FILLER_10_6
*119 FILLER_10_62
*120 FILLER_10_65
*121 FILLER_10_68
*122 FILLER_10_71
*123 FILLER_10_74
*124 FILLER_10_77
*125 FILLER_10_80
*126 FILLER_10_83
*127 FILLER_10_85
*128 FILLER_10_88
*129 FILLER_10_9
*130 FILLER_10_91
*131 FILLER_10_94
*132 FILLER_10_97
*133 FILLER_11_102
*134 FILLER_11_105
*135 FILLER_11_108
*136 FILLER_11_111
*137 FILLER_11_113
*138 FILLER_11_116
*139 FILLER_11_119
*140 FILLER_11_12
*141 FILLER_11_122
*142 FILLER_11_125
*143 FILLER_11_128
*144 FILLER_11_131
*145 FILLER_11_134
*146 FILLER_11_137
*147 FILLER_11_140
*148 FILLER_11_143
*149 FILLER_11_146
*150 FILLER_11_149
*151 FILLER_11_15
*152 FILLER_11_152
*153 FILLER_11_155
*154 FILLER_11_158
*155 FILLER_11_161
*156 FILLER_11_164
*157 FILLER_11_167
*158 FILLER_11_169
*159 FILLER_11_172
*160 FILLER_11_175
*161 FILLER_11_178
*162 FILLER_11_18
*163 FILLER_11_181
*164 FILLER_11_184
*165 FILLER_11_187
*166 FILLER_11_21
*167 FILLER_11_24
*168 FILLER_11_27
*169 FILLER_11_3
*170 FILLER_11_30
*171 FILLER_11_33
*172 FILLER_11_36
*173 FILLER_11_39
*174 FILLER_11_42
*175 FILLER_11_45
*176 FILLER_11_48
*177 FILLER_11_51
*178 FILLER_11_54
*179 FILLER_11_57
*180 FILLER_11_6
*181 FILLER_11_60
*182 FILLER_11_63
*183 FILLER_11_66
*184 FILLER_11_69
*185 FILLER_11_72
*186 FILLER_11_75
*187 FILLER_11_78
*188 FILLER_11_81
*189 FILLER_11_84
*190 FILLER_11_87
*191 FILLER_11_9
*192 FILLER_11_90
*193 FILLER_11_93
*194 FILLER_11_96
*195 FILLER_11_99
*196 FILLER_12_100
*197 FILLER_12_103
*198 FILLER_12_106
*199 FILLER_12_109
*200 FILLER_12_112
*201 FILLER_12_115
*202 FILLER_12_118
*203 FILLER_12_12
*204 FILLER_12_121
*205 FILLER_12_124
*206 FILLER_12_127
*207 FILLER_12_130
*208 FILLER_12_133
*209 FILLER_12_136
*210 FILLER_12_139
*211 FILLER_12_141
*212 FILLER_12_144
*213 FILLER_12_147
*214 FILLER_12_15
*215 FILLER_12_150
*216 FILLER_12_153
*217 FILLER_12_156
*218 FILLER_12_159
*219 FILLER_12_162
*220 FILLER_12_165
*221 FILLER_12_168
*222 FILLER_12_171
*223 FILLER_12_174
*224 FILLER_12_177
*225 FILLER_12_18
*226 FILLER_12_180
*227 FILLER_12_183
*228 FILLER_12_186
*229 FILLER_12_189
*230 FILLER_12_21
*231 FILLER_12_24
*232 FILLER_12_27
*233 FILLER_12_29
*234 FILLER_12_3
*235 FILLER_12_32
*236 FILLER_12_35
*237 FILLER_12_38
*238 FILLER_12_41
*239 FILLER_12_44
*240 FILLER_12_47
*241 FILLER_12_50
*242 FILLER_12_53
*243 FILLER_12_56
*244 FILLER_12_59
*245 FILLER_12_6
*246 FILLER_12_62
*247 FILLER_12_65
*248 FILLER_12_68
*249 FILLER_12_71
*250 FILLER_12_74
*251 FILLER_12_77
*252 FILLER_12_80
*253 FILLER_12_83
*254 FILLER_12_85
*255 FILLER_12_88
*256 FILLER_12_9
*257 FILLER_12_91
*258 FILLER_12_94
*259 FILLER_12_97
*260 FILLER_13_102
*261 FILLER_13_105
*262 FILLER_13_108
*263 FILLER_13_111
*264 FILLER_13_113
*265 FILLER_13_116
*266 FILLER_13_119
*267 FILLER_13_12
*268 FILLER_13_122
*269 FILLER_13_125
*270 FILLER_13_128
*271 FILLER_13_131
*272 FILLER_13_134
*273 FILLER_13_137
*274 FILLER_13_140
*275 FILLER_13_143
*276 FILLER_13_146
*277 FILLER_13_149
*278 FILLER_13_15
*279 FILLER_13_152
*280 FILLER_13_155
*281 FILLER_13_158
*282 FILLER_13_161
*283 FILLER_13_164
*284 FILLER_13_167
*285 FILLER_13_169
*286 FILLER_13_172
*287 FILLER_13_175
*288 FILLER_13_178
*289 FILLER_13_18
*290 FILLER_13_181
*291 FILLER_13_184
*292 FILLER_13_187
*293 FILLER_13_21
*294 FILLER_13_24
*295 FILLER_13_27
*296 FILLER_13_3
*297 FILLER_13_30
*298 FILLER_13_33
*299 FILLER_13_36
*300 FILLER_13_39
*301 FILLER_13_42
*302 FILLER_13_45
*303 FILLER_13_48
*304 FILLER_13_51
*305 FILLER_13_54
*306 FILLER_13_57
*307 FILLER_13_6
*308 FILLER_13_60
*309 FILLER_13_63
*310 FILLER_13_66
*311 FILLER_13_69
*312 FILLER_13_72
*313 FILLER_13_75
*314 FILLER_13_78
*315 FILLER_13_81
*316 FILLER_13_84
*317 FILLER_13_87
*318 FILLER_13_9
*319 FILLER_13_90
*320 FILLER_13_93
*321 FILLER_13_96
*322 FILLER_13_99
*323 FILLER_14_100
*324 FILLER_14_103
*325 FILLER_14_106
*326 FILLER_14_109
*327 FILLER_14_112
*328 FILLER_14_115
*329 FILLER_14_118
*330 FILLER_14_12
*331 FILLER_14_121
*332 FILLER_14_124
*333 FILLER_14_127
*334 FILLER_14_130
*335 FILLER_14_133
*336 FILLER_14_136
*337 FILLER_14_139
*338 FILLER_14_141
*339 FILLER_14_144
*340 FILLER_14_147
*341 FILLER_14_15
*342 FILLER_14_150
*343 FILLER_14_153
*344 FILLER_14_156
*345 FILLER_14_159
*346 FILLER_14_162
*347 FILLER_14_165
*348 FILLER_14_168
*349 FILLER_14_171
*350 FILLER_14_174
*351 FILLER_14_177
*352 FILLER_14_18
*353 FILLER_14_180
*354 FILLER_14_183
*355 FILLER_14_186
*356 FILLER_14_189
*357 FILLER_14_21
*358 FILLER_14_24
*359 FILLER_14_27
*360 FILLER_14_29
*361 FILLER_14_3
*362 FILLER_14_32
*363 FILLER_14_35
*364 FILLER_14_38
*365 FILLER_14_41
*366 FILLER_14_44
*367 FILLER_14_47
*368 FILLER_14_50
*369 FILLER_14_53
*370 FILLER_14_56
*371 FILLER_14_59
*372 FILLER_14_6
*373 FILLER_14_62
*374 FILLER_14_65
*375 FILLER_14_68
*376 FILLER_14_71
*377 FILLER_14_74
*378 FILLER_14_77
*379 FILLER_14_80
*380 FILLER_14_83
*381 FILLER_14_85
*382 FILLER_14_88
*383 FILLER_14_9
*384 FILLER_14_91
*385 FILLER_14_94
*386 FILLER_14_97
*387 FILLER_15_102
*388 FILLER_15_105
*389 FILLER_15_108
*390 FILLER_15_111
*391 FILLER_15_113
*392 FILLER_15_116
*393 FILLER_15_119
*394 FILLER_15_12
*395 FILLER_15_122
*396 FILLER_15_125
*397 FILLER_15_128
*398 FILLER_15_131
*399 FILLER_15_134
*400 FILLER_15_137
*401 FILLER_15_140
*402 FILLER_15_143
*403 FILLER_15_146
*404 FILLER_15_149
*405 FILLER_15_15
*406 FILLER_15_152
*407 FILLER_15_155
*408 FILLER_15_158
*409 FILLER_15_161
*410 FILLER_15_164
*411 FILLER_15_167
*412 FILLER_15_169
*413 FILLER_15_172
*414 FILLER_15_175
*415 FILLER_15_178
*416 FILLER_15_18
*417 FILLER_15_181
*418 FILLER_15_184
*419 FILLER_15_187
*420 FILLER_15_21
*421 FILLER_15_24
*422 FILLER_15_27
*423 FILLER_15_3
*424 FILLER_15_30
*425 FILLER_15_33
*426 FILLER_15_36
*427 FILLER_15_39
*428 FILLER_15_42
*429 FILLER_15_45
*430 FILLER_15_48
*431 FILLER_15_51
*432 FILLER_15_54
*433 FILLER_15_57
*434 FILLER_15_6
*435 FILLER_15_60
*436 FILLER_15_63
*437 FILLER_15_66
*438 FILLER_15_69
*439 FILLER_15_72
*440 FILLER_15_75
*441 FILLER_15_78
*442 FILLER_15_81
*443 FILLER_15_84
*444 FILLER_15_87
*445 FILLER_15_9
*446 FILLER_15_90
*447 FILLER_15_93
*448 FILLER_15_96
*449 FILLER_15_99
*450 FILLER_16_100
*451 FILLER_16_103
*452 FILLER_16_106
*453 FILLER_16_109
*454 FILLER_16_112
*455 FILLER_16_115
*456 FILLER_16_118
*457 FILLER_16_12
*458 FILLER_16_121
*459 FILLER_16_124
*460 FILLER_16_127
*461 FILLER_16_130
*462 FILLER_16_133
*463 FILLER_16_136
*464 FILLER_16_139
*465 FILLER_16_141
*466 FILLER_16_144
*467 FILLER_16_147
*468 FILLER_16_15
*469 FILLER_16_150
*470 FILLER_16_153
*471 FILLER_16_156
*472 FILLER_16_159
*473 FILLER_16_162
*474 FILLER_16_165
*475 FILLER_16_168
*476 FILLER_16_171
*477 FILLER_16_174
*478 FILLER_16_177
*479 FILLER_16_18
*480 FILLER_16_180
*481 FILLER_16_183
*482 FILLER_16_186
*483 FILLER_16_189
*484 FILLER_16_21
*485 FILLER_16_24
*486 FILLER_16_27
*487 FILLER_16_29
*488 FILLER_16_3
*489 FILLER_16_32
*490 FILLER_16_35
*491 FILLER_16_38
*492 FILLER_16_41
*493 FILLER_16_44
*494 FILLER_16_47
*495 FILLER_16_50
*496 FILLER_16_53
*497 FILLER_16_56
*498 FILLER_16_59
*499 FILLER_16_6
*500 FILLER_16_62
*501 FILLER_16_65
*502 FILLER_16_68
*503 FILLER_16_71
*504 FILLER_16_74
*505 FILLER_16_77
*506 FILLER_16_80
*507 FILLER_16_83
*508 FILLER_16_85
*509 FILLER_16_88
*510 FILLER_16_9
*511 FILLER_16_91
*512 FILLER_16_94
*513 FILLER_16_97
*514 FILLER_17_102
*515 FILLER_17_105
*516 FILLER_17_108
*517 FILLER_17_111
*518 FILLER_17_113
*519 FILLER_17_116
*520 FILLER_17_119
*521 FILLER_17_12
*522 FILLER_17_122
*523 FILLER_17_125
*524 FILLER_17_128
*525 FILLER_17_131
*526 FILLER_17_134
*527 FILLER_17_137
*528 FILLER_17_140
*529 FILLER_17_143
*530 FILLER_17_146
*531 FILLER_17_149
*532 FILLER_17_15
*533 FILLER_17_152
*534 FILLER_17_155
*535 FILLER_17_158
*536 FILLER_17_161
*537 FILLER_17_164
*538 FILLER_17_167
*539 FILLER_17_169
*540 FILLER_17_172
*541 FILLER_17_175
*542 FILLER_17_178
*543 FILLER_17_18
*544 FILLER_17_181
*545 FILLER_17_184
*546 FILLER_17_187
*547 FILLER_17_21
*548 FILLER_17_24
*549 FILLER_17_27
*550 FILLER_17_3
*551 FILLER_17_30
*552 FILLER_17_33
*553 FILLER_17_36
*554 FILLER_17_39
*555 FILLER_17_42
*556 FILLER_17_45
*557 FILLER_17_48
*558 FILLER_17_51
*559 FILLER_17_54
*560 FILLER_17_57
*561 FILLER_17_6
*562 FILLER_17_60
*563 FILLER_17_63
*564 FILLER_17_66
*565 FILLER_17_69
*566 FILLER_17_72
*567 FILLER_17_75
*568 FILLER_17_78
*569 FILLER_17_81
*570 FILLER_17_84
*571 FILLER_17_87
*572 FILLER_17_9
*573 FILLER_17_90
*574 FILLER_17_93
*575 FILLER_17_96
*576 FILLER_17_99
*577 FILLER_18_100
*578 FILLER_18_103
*579 FILLER_18_106
*580 FILLER_18_109
*581 FILLER_18_112
*582 FILLER_18_115
*583 FILLER_18_118
*584 FILLER_18_12
*585 FILLER_18_121
*586 FILLER_18_124
*587 FILLER_18_127
*588 FILLER_18_130
*589 FILLER_18_133
*590 FILLER_18_136
*591 FILLER_18_139
*592 FILLER_18_141
*593 FILLER_18_144
*594 FILLER_18_147
*595 FILLER_18_15
*596 FILLER_18_150
*597 FILLER_18_153
*598 FILLER_18_156
*599 FILLER_18_159
*600 FILLER_18_162
*601 FILLER_18_165
*602 FILLER_18_168
*603 FILLER_18_171
*604 FILLER_18_174
*605 FILLER_18_177
*606 FILLER_18_18
*607 FILLER_18_180
*608 FILLER_18_183
*609 FILLER_18_186
*610 FILLER_18_189
*611 FILLER_18_21
*612 FILLER_18_24
*613 FILLER_18_27
*614 FILLER_18_29
*615 FILLER_18_3
*616 FILLER_18_32
*617 FILLER_18_35
*618 FILLER_18_38
*619 FILLER_18_41
*620 FILLER_18_44
*621 FILLER_18_47
*622 FILLER_18_50
*623 FILLER_18_53
*624 FILLER_18_56
*625 FILLER_18_59
*626 FILLER_18_6
*627 FILLER_18_62
*628 FILLER_18_65
*629 FILLER_18_68
*630 FILLER_18_71
*631 FILLER_18_74
*632 FILLER_18_77
*633 FILLER_18_80
*634 FILLER_18_83
*635 FILLER_18_85
*636 FILLER_18_88
*637 FILLER_18_9
*638 FILLER_18_91
*639 FILLER_18_94
*640 FILLER_18_97
*641 FILLER_19_102
*642 FILLER_19_105
*643 FILLER_19_108
*644 FILLER_19_111
*645 FILLER_19_113
*646 FILLER_19_116
*647 FILLER_19_119
*648 FILLER_19_12
*649 FILLER_19_122
*650 FILLER_19_125
*651 FILLER_19_128
*652 FILLER_19_131
*653 FILLER_19_134
*654 FILLER_19_137
*655 FILLER_19_140
*656 FILLER_19_143
*657 FILLER_19_146
*658 FILLER_19_149
*659 FILLER_19_15
*660 FILLER_19_152
*661 FILLER_19_155
*662 FILLER_19_158
*663 FILLER_19_161
*664 FILLER_19_164
*665 FILLER_19_167
*666 FILLER_19_169
*667 FILLER_19_172
*668 FILLER_19_175
*669 FILLER_19_178
*670 FILLER_19_18
*671 FILLER_19_181
*672 FILLER_19_184
*673 FILLER_19_187
*674 FILLER_19_21
*675 FILLER_19_24
*676 FILLER_19_27
*677 FILLER_19_3
*678 FILLER_19_30
*679 FILLER_19_33
*680 FILLER_19_36
*681 FILLER_19_39
*682 FILLER_19_42
*683 FILLER_19_45
*684 FILLER_19_48
*685 FILLER_19_51
*686 FILLER_19_54
*687 FILLER_19_57
*688 FILLER_19_6
*689 FILLER_19_60
*690 FILLER_19_63
*691 FILLER_19_66
*692 FILLER_19_69
*693 FILLER_19_72
*694 FILLER_19_75
*695 FILLER_19_78
*696 FILLER_19_81
*697 FILLER_19_84
*698 FILLER_19_87
*699 FILLER_19_9
*700 FILLER_19_90
*701 FILLER_19_93
*702 FILLER_19_96
*703 FILLER_19_99
*704 FILLER_1_105
*705 FILLER_1_108
*706 FILLER_1_111
*707 FILLER_1_113
*708 FILLER_1_116
*709 FILLER_1_119
*710 FILLER_1_12
*711 FILLER_1_122
*712 FILLER_1_125
*713 FILLER_1_128
*714 FILLER_1_131
*715 FILLER_1_134
*716 FILLER_1_137
*717 FILLER_1_140
*718 FILLER_1_143
*719 FILLER_1_146
*720 FILLER_1_149
*721 FILLER_1_15
*722 FILLER_1_152
*723 FILLER_1_155
*724 FILLER_1_158
*725 FILLER_1_161
*726 FILLER_1_164
*727 FILLER_1_167
*728 FILLER_1_169
*729 FILLER_1_172
*730 FILLER_1_175
*731 FILLER_1_178
*732 FILLER_1_18
*733 FILLER_1_181
*734 FILLER_1_184
*735 FILLER_1_187
*736 FILLER_1_21
*737 FILLER_1_24
*738 FILLER_1_27
*739 FILLER_1_3
*740 FILLER_1_30
*741 FILLER_1_33
*742 FILLER_1_36
*743 FILLER_1_39
*744 FILLER_1_42
*745 FILLER_1_45
*746 FILLER_1_48
*747 FILLER_1_51
*748 FILLER_1_54
*749 FILLER_1_57
*750 FILLER_1_6
*751 FILLER_1_60
*752 FILLER_1_63
*753 FILLER_1_66
*754 FILLER_1_69
*755 FILLER_1_72
*756 FILLER_1_75
*757 FILLER_1_78
*758 FILLER_1_81
*759 FILLER_1_84
*760 FILLER_1_9
*761 FILLER_20_100
*762 FILLER_20_103
*763 FILLER_20_106
*764 FILLER_20_109
*765 FILLER_20_112
*766 FILLER_20_115
*767 FILLER_20_118
*768 FILLER_20_12
*769 FILLER_20_121
*770 FILLER_20_124
*771 FILLER_20_127
*772 FILLER_20_130
*773 FILLER_20_133
*774 FILLER_20_136
*775 FILLER_20_139
*776 FILLER_20_141
*777 FILLER_20_144
*778 FILLER_20_147
*779 FILLER_20_15
*780 FILLER_20_150
*781 FILLER_20_153
*782 FILLER_20_156
*783 FILLER_20_159
*784 FILLER_20_162
*785 FILLER_20_165
*786 FILLER_20_168
*787 FILLER_20_171
*788 FILLER_20_174
*789 FILLER_20_177
*790 FILLER_20_18
*791 FILLER_20_180
*792 FILLER_20_183
*793 FILLER_20_186
*794 FILLER_20_189
*795 FILLER_20_21
*796 FILLER_20_24
*797 FILLER_20_27
*798 FILLER_20_29
*799 FILLER_20_3
*800 FILLER_20_32
*801 FILLER_20_35
*802 FILLER_20_38
*803 FILLER_20_41
*804 FILLER_20_44
*805 FILLER_20_47
*806 FILLER_20_50
*807 FILLER_20_53
*808 FILLER_20_56
*809 FILLER_20_59
*810 FILLER_20_6
*811 FILLER_20_62
*812 FILLER_20_65
*813 FILLER_20_68
*814 FILLER_20_71
*815 FILLER_20_74
*816 FILLER_20_77
*817 FILLER_20_80
*818 FILLER_20_83
*819 FILLER_20_85
*820 FILLER_20_88
*821 FILLER_20_9
*822 FILLER_20_91
*823 FILLER_20_94
*824 FILLER_20_97
*825 FILLER_21_102
*826 FILLER_21_105
*827 FILLER_21_108
*828 FILLER_21_111
*829 FILLER_21_113
*830 FILLER_21_116
*831 FILLER_21_119
*832 FILLER_21_12
*833 FILLER_21_122
*834 FILLER_21_125
*835 FILLER_21_128
*836 FILLER_21_131
*837 FILLER_21_134
*838 FILLER_21_137
*839 FILLER_21_140
*840 FILLER_21_143
*841 FILLER_21_146
*842 FILLER_21_149
*843 FILLER_21_15
*844 FILLER_21_152
*845 FILLER_21_155
*846 FILLER_21_158
*847 FILLER_21_161
*848 FILLER_21_164
*849 FILLER_21_167
*850 FILLER_21_169
*851 FILLER_21_172
*852 FILLER_21_175
*853 FILLER_21_178
*854 FILLER_21_18
*855 FILLER_21_181
*856 FILLER_21_184
*857 FILLER_21_187
*858 FILLER_21_21
*859 FILLER_21_24
*860 FILLER_21_27
*861 FILLER_21_3
*862 FILLER_21_30
*863 FILLER_21_33
*864 FILLER_21_36
*865 FILLER_21_39
*866 FILLER_21_42
*867 FILLER_21_45
*868 FILLER_21_48
*869 FILLER_21_51
*870 FILLER_21_54
*871 FILLER_21_57
*872 FILLER_21_6
*873 FILLER_21_60
*874 FILLER_21_63
*875 FILLER_21_66
*876 FILLER_21_69
*877 FILLER_21_72
*878 FILLER_21_75
*879 FILLER_21_78
*880 FILLER_21_81
*881 FILLER_21_84
*882 FILLER_21_87
*883 FILLER_21_9
*884 FILLER_21_90
*885 FILLER_21_93
*886 FILLER_21_96
*887 FILLER_21_99
*888 FILLER_22_100
*889 FILLER_22_103
*890 FILLER_22_106
*891 FILLER_22_109
*892 FILLER_22_112
*893 FILLER_22_115
*894 FILLER_22_118
*895 FILLER_22_12
*896 FILLER_22_121
*897 FILLER_22_124
*898 FILLER_22_127
*899 FILLER_22_130
*900 FILLER_22_133
*901 FILLER_22_136
*902 FILLER_22_139
*903 FILLER_22_141
*904 FILLER_22_144
*905 FILLER_22_147
*906 FILLER_22_15
*907 FILLER_22_150
*908 FILLER_22_153
*909 FILLER_22_156
*910 FILLER_22_159
*911 FILLER_22_162
*912 FILLER_22_165
*913 FILLER_22_168
*914 FILLER_22_171
*915 FILLER_22_174
*916 FILLER_22_177
*917 FILLER_22_18
*918 FILLER_22_180
*919 FILLER_22_183
*920 FILLER_22_186
*921 FILLER_22_189
*922 FILLER_22_21
*923 FILLER_22_24
*924 FILLER_22_27
*925 FILLER_22_29
*926 FILLER_22_3
*927 FILLER_22_32
*928 FILLER_22_35
*929 FILLER_22_38
*930 FILLER_22_41
*931 FILLER_22_44
*932 FILLER_22_47
*933 FILLER_22_50
*934 FILLER_22_53
*935 FILLER_22_56
*936 FILLER_22_59
*937 FILLER_22_6
*938 FILLER_22_62
*939 FILLER_22_65
*940 FILLER_22_68
*941 FILLER_22_71
*942 FILLER_22_74
*943 FILLER_22_77
*944 FILLER_22_80
*945 FILLER_22_83
*946 FILLER_22_85
*947 FILLER_22_88
*948 FILLER_22_9
*949 FILLER_22_91
*950 FILLER_22_94
*951 FILLER_22_97
*952 FILLER_23_102
*953 FILLER_23_105
*954 FILLER_23_108
*955 FILLER_23_111
*956 FILLER_23_113
*957 FILLER_23_116
*958 FILLER_23_119
*959 FILLER_23_12
*960 FILLER_23_122
*961 FILLER_23_125
*962 FILLER_23_128
*963 FILLER_23_131
*964 FILLER_23_134
*965 FILLER_23_137
*966 FILLER_23_140
*967 FILLER_23_143
*968 FILLER_23_146
*969 FILLER_23_149
*970 FILLER_23_15
*971 FILLER_23_152
*972 FILLER_23_155
*973 FILLER_23_158
*974 FILLER_23_161
*975 FILLER_23_164
*976 FILLER_23_167
*977 FILLER_23_169
*978 FILLER_23_172
*979 FILLER_23_175
*980 FILLER_23_178
*981 FILLER_23_18
*982 FILLER_23_181
*983 FILLER_23_184
*984 FILLER_23_187
*985 FILLER_23_21
*986 FILLER_23_24
*987 FILLER_23_27
*988 FILLER_23_3
*989 FILLER_23_30
*990 FILLER_23_33
*991 FILLER_23_36
*992 FILLER_23_39
*993 FILLER_23_42
*994 FILLER_23_45
*995 FILLER_23_48
*996 FILLER_23_51
*997 FILLER_23_54
*998 FILLER_23_57
*999 FILLER_23_6
*1000 FILLER_23_60
*1001 FILLER_23_63
*1002 FILLER_23_66
*1003 FILLER_23_69
*1004 FILLER_23_72
*1005 FILLER_23_75
*1006 FILLER_23_78
*1007 FILLER_23_81
*1008 FILLER_23_84
*1009 FILLER_23_87
*1010 FILLER_23_9
*1011 FILLER_23_90
*1012 FILLER_23_93
*1013 FILLER_23_96
*1014 FILLER_23_99
*1015 FILLER_24_100
*1016 FILLER_24_103
*1017 FILLER_24_106
*1018 FILLER_24_109
*1019 FILLER_24_112
*1020 FILLER_24_115
*1021 FILLER_24_118
*1022 FILLER_24_12
*1023 FILLER_24_121
*1024 FILLER_24_124
*1025 FILLER_24_127
*1026 FILLER_24_130
*1027 FILLER_24_133
*1028 FILLER_24_136
*1029 FILLER_24_139
*1030 FILLER_24_141
*1031 FILLER_24_144
*1032 FILLER_24_147
*1033 FILLER_24_15
*1034 FILLER_24_150
*1035 FILLER_24_153
*1036 FILLER_24_156
*1037 FILLER_24_159
*1038 FILLER_24_162
*1039 FILLER_24_165
*1040 FILLER_24_168
*1041 FILLER_24_171
*1042 FILLER_24_174
*1043 FILLER_24_177
*1044 FILLER_24_18
*1045 FILLER_24_180
*1046 FILLER_24_183
*1047 FILLER_24_186
*1048 FILLER_24_189
*1049 FILLER_24_21
*1050 FILLER_24_24
*1051 FILLER_24_27
*1052 FILLER_24_29
*1053 FILLER_24_3
*1054 FILLER_24_32
*1055 FILLER_24_35
*1056 FILLER_24_38
*1057 FILLER_24_41
*1058 FILLER_24_44
*1059 FILLER_24_47
*1060 FILLER_24_50
*1061 FILLER_24_53
*1062 FILLER_24_56
*1063 FILLER_24_59
*1064 FILLER_24_6
*1065 FILLER_24_62
*1066 FILLER_24_65
*1067 FILLER_24_68
*1068 FILLER_24_71
*1069 FILLER_24_74
*1070 FILLER_24_77
*1071 FILLER_24_80
*1072 FILLER_24_83
*1073 FILLER_24_85
*1074 FILLER_24_88
*1075 FILLER_24_9
*1076 FILLER_24_91
*1077 FILLER_24_94
*1078 FILLER_24_97
*1079 FILLER_25_102
*1080 FILLER_25_105
*1081 FILLER_25_108
*1082 FILLER_25_111
*1083 FILLER_25_113
*1084 FILLER_25_116
*1085 FILLER_25_119
*1086 FILLER_25_12
*1087 FILLER_25_122
*1088 FILLER_25_125
*1089 FILLER_25_128
*1090 FILLER_25_131
*1091 FILLER_25_134
*1092 FILLER_25_137
*1093 FILLER_25_140
*1094 FILLER_25_143
*1095 FILLER_25_146
*1096 FILLER_25_149
*1097 FILLER_25_15
*1098 FILLER_25_152
*1099 FILLER_25_155
*1100 FILLER_25_158
*1101 FILLER_25_161
*1102 FILLER_25_164
*1103 FILLER_25_167
*1104 FILLER_25_169
*1105 FILLER_25_172
*1106 FILLER_25_175
*1107 FILLER_25_178
*1108 FILLER_25_18
*1109 FILLER_25_181
*1110 FILLER_25_184
*1111 FILLER_25_187
*1112 FILLER_25_21
*1113 FILLER_25_24
*1114 FILLER_25_27
*1115 FILLER_25_3
*1116 FILLER_25_30
*1117 FILLER_25_33
*1118 FILLER_25_36
*1119 FILLER_25_39
*1120 FILLER_25_42
*1121 FILLER_25_45
*1122 FILLER_25_48
*1123 FILLER_25_51
*1124 FILLER_25_54
*1125 FILLER_25_57
*1126 FILLER_25_6
*1127 FILLER_25_60
*1128 FILLER_25_63
*1129 FILLER_25_66
*1130 FILLER_25_69
*1131 FILLER_25_72
*1132 FILLER_25_75
*1133 FILLER_25_78
*1134 FILLER_25_81
*1135 FILLER_25_84
*1136 FILLER_25_87
*1137 FILLER_25_9
*1138 FILLER_25_90
*1139 FILLER_25_93
*1140 FILLER_25_96
*1141 FILLER_25_99
*1142 FILLER_26_100
*1143 FILLER_26_103
*1144 FILLER_26_106
*1145 FILLER_26_109
*1146 FILLER_26_112
*1147 FILLER_26_115
*1148 FILLER_26_118
*1149 FILLER_26_12
*1150 FILLER_26_121
*1151 FILLER_26_124
*1152 FILLER_26_127
*1153 FILLER_26_130
*1154 FILLER_26_133
*1155 FILLER_26_136
*1156 FILLER_26_139
*1157 FILLER_26_141
*1158 FILLER_26_144
*1159 FILLER_26_147
*1160 FILLER_26_15
*1161 FILLER_26_150
*1162 FILLER_26_153
*1163 FILLER_26_156
*1164 FILLER_26_159
*1165 FILLER_26_162
*1166 FILLER_26_165
*1167 FILLER_26_168
*1168 FILLER_26_171
*1169 FILLER_26_174
*1170 FILLER_26_177
*1171 FILLER_26_18
*1172 FILLER_26_180
*1173 FILLER_26_183
*1174 FILLER_26_186
*1175 FILLER_26_189
*1176 FILLER_26_21
*1177 FILLER_26_24
*1178 FILLER_26_27
*1179 FILLER_26_29
*1180 FILLER_26_3
*1181 FILLER_26_32
*1182 FILLER_26_35
*1183 FILLER_26_38
*1184 FILLER_26_41
*1185 FILLER_26_44
*1186 FILLER_26_47
*1187 FILLER_26_50
*1188 FILLER_26_53
*1189 FILLER_26_56
*1190 FILLER_26_59
*1191 FILLER_26_6
*1192 FILLER_26_62
*1193 FILLER_26_65
*1194 FILLER_26_68
*1195 FILLER_26_71
*1196 FILLER_26_74
*1197 FILLER_26_77
*1198 FILLER_26_80
*1199 FILLER_26_83
*1200 FILLER_26_85
*1201 FILLER_26_88
*1202 FILLER_26_9
*1203 FILLER_26_91
*1204 FILLER_26_94
*1205 FILLER_26_97
*1206 FILLER_27_100
*1207 FILLER_27_103
*1208 FILLER_27_106
*1209 FILLER_27_109
*1210 FILLER_27_113
*1211 FILLER_27_116
*1212 FILLER_27_119
*1213 FILLER_27_12
*1214 FILLER_27_122
*1215 FILLER_27_125
*1216 FILLER_27_128
*1217 FILLER_27_131
*1218 FILLER_27_134
*1219 FILLER_27_137
*1220 FILLER_27_141
*1221 FILLER_27_144
*1222 FILLER_27_147
*1223 FILLER_27_15
*1224 FILLER_27_150
*1225 FILLER_27_153
*1226 FILLER_27_156
*1227 FILLER_27_159
*1228 FILLER_27_162
*1229 FILLER_27_165
*1230 FILLER_27_169
*1231 FILLER_27_172
*1232 FILLER_27_175
*1233 FILLER_27_178
*1234 FILLER_27_18
*1235 FILLER_27_181
*1236 FILLER_27_184
*1237 FILLER_27_187
*1238 FILLER_27_21
*1239 FILLER_27_24
*1240 FILLER_27_27
*1241 FILLER_27_29
*1242 FILLER_27_3
*1243 FILLER_27_32
*1244 FILLER_27_35
*1245 FILLER_27_38
*1246 FILLER_27_41
*1247 FILLER_27_44
*1248 FILLER_27_47
*1249 FILLER_27_50
*1250 FILLER_27_53
*1251 FILLER_27_57
*1252 FILLER_27_6
*1253 FILLER_27_60
*1254 FILLER_27_63
*1255 FILLER_27_66
*1256 FILLER_27_69
*1257 FILLER_27_72
*1258 FILLER_27_75
*1259 FILLER_27_78
*1260 FILLER_27_81
*1261 FILLER_27_85
*1262 FILLER_27_88
*1263 FILLER_27_9
*1264 FILLER_27_91
*1265 FILLER_27_94
*1266 FILLER_27_97
*1267 FILLER_2_101
*1268 FILLER_2_104
*1269 FILLER_2_107
*1270 FILLER_2_110
*1271 FILLER_2_113
*1272 FILLER_2_116
*1273 FILLER_2_119
*1274 FILLER_2_12
*1275 FILLER_2_122
*1276 FILLER_2_125
*1277 FILLER_2_128
*1278 FILLER_2_131
*1279 FILLER_2_134
*1280 FILLER_2_137
*1281 FILLER_2_141
*1282 FILLER_2_144
*1283 FILLER_2_147
*1284 FILLER_2_15
*1285 FILLER_2_150
*1286 FILLER_2_153
*1287 FILLER_2_156
*1288 FILLER_2_159
*1289 FILLER_2_162
*1290 FILLER_2_165
*1291 FILLER_2_168
*1292 FILLER_2_171
*1293 FILLER_2_174
*1294 FILLER_2_177
*1295 FILLER_2_18
*1296 FILLER_2_180
*1297 FILLER_2_183
*1298 FILLER_2_186
*1299 FILLER_2_189
*1300 FILLER_2_21
*1301 FILLER_2_24
*1302 FILLER_2_27
*1303 FILLER_2_29
*1304 FILLER_2_3
*1305 FILLER_2_32
*1306 FILLER_2_35
*1307 FILLER_2_38
*1308 FILLER_2_41
*1309 FILLER_2_44
*1310 FILLER_2_47
*1311 FILLER_2_50
*1312 FILLER_2_53
*1313 FILLER_2_56
*1314 FILLER_2_59
*1315 FILLER_2_6
*1316 FILLER_2_62
*1317 FILLER_2_65
*1318 FILLER_2_68
*1319 FILLER_2_71
*1320 FILLER_2_74
*1321 FILLER_2_77
*1322 FILLER_2_80
*1323 FILLER_2_83
*1324 FILLER_2_85
*1325 FILLER_2_88
*1326 FILLER_2_9
*1327 FILLER_2_91
*1328 FILLER_2_94
*1329 FILLER_2_98
*1330 FILLER_3_102
*1331 FILLER_3_105
*1332 FILLER_3_108
*1333 FILLER_3_111
*1334 FILLER_3_113
*1335 FILLER_3_116
*1336 FILLER_3_119
*1337 FILLER_3_12
*1338 FILLER_3_122
*1339 FILLER_3_125
*1340 FILLER_3_128
*1341 FILLER_3_131
*1342 FILLER_3_134
*1343 FILLER_3_137
*1344 FILLER_3_140
*1345 FILLER_3_143
*1346 FILLER_3_146
*1347 FILLER_3_149
*1348 FILLER_3_15
*1349 FILLER_3_152
*1350 FILLER_3_155
*1351 FILLER_3_158
*1352 FILLER_3_161
*1353 FILLER_3_164
*1354 FILLER_3_167
*1355 FILLER_3_169
*1356 FILLER_3_172
*1357 FILLER_3_175
*1358 FILLER_3_178
*1359 FILLER_3_18
*1360 FILLER_3_181
*1361 FILLER_3_184
*1362 FILLER_3_187
*1363 FILLER_3_21
*1364 FILLER_3_24
*1365 FILLER_3_27
*1366 FILLER_3_3
*1367 FILLER_3_30
*1368 FILLER_3_33
*1369 FILLER_3_36
*1370 FILLER_3_39
*1371 FILLER_3_42
*1372 FILLER_3_45
*1373 FILLER_3_48
*1374 FILLER_3_51
*1375 FILLER_3_54
*1376 FILLER_3_57
*1377 FILLER_3_6
*1378 FILLER_3_60
*1379 FILLER_3_63
*1380 FILLER_3_66
*1381 FILLER_3_69
*1382 FILLER_3_72
*1383 FILLER_3_75
*1384 FILLER_3_78
*1385 FILLER_3_81
*1386 FILLER_3_84
*1387 FILLER_3_87
*1388 FILLER_3_9
*1389 FILLER_3_90
*1390 FILLER_3_93
*1391 FILLER_3_96
*1392 FILLER_3_99
*1393 FILLER_4_100
*1394 FILLER_4_103
*1395 FILLER_4_106
*1396 FILLER_4_109
*1397 FILLER_4_112
*1398 FILLER_4_115
*1399 FILLER_4_118
*1400 FILLER_4_12
*1401 FILLER_4_121
*1402 FILLER_4_124
*1403 FILLER_4_127
*1404 FILLER_4_130
*1405 FILLER_4_133
*1406 FILLER_4_136
*1407 FILLER_4_139
*1408 FILLER_4_141
*1409 FILLER_4_144
*1410 FILLER_4_147
*1411 FILLER_4_15
*1412 FILLER_4_150
*1413 FILLER_4_153
*1414 FILLER_4_156
*1415 FILLER_4_159
*1416 FILLER_4_162
*1417 FILLER_4_165
*1418 FILLER_4_168
*1419 FILLER_4_171
*1420 FILLER_4_174
*1421 FILLER_4_177
*1422 FILLER_4_18
*1423 FILLER_4_180
*1424 FILLER_4_183
*1425 FILLER_4_186
*1426 FILLER_4_189
*1427 FILLER_4_21
*1428 FILLER_4_24
*1429 FILLER_4_27
*1430 FILLER_4_29
*1431 FILLER_4_3
*1432 FILLER_4_32
*1433 FILLER_4_35
*1434 FILLER_4_38
*1435 FILLER_4_41
*1436 FILLER_4_44
*1437 FILLER_4_47
*1438 FILLER_4_50
*1439 FILLER_4_53
*1440 FILLER_4_56
*1441 FILLER_4_59
*1442 FILLER_4_6
*1443 FILLER_4_62
*1444 FILLER_4_65
*1445 FILLER_4_68
*1446 FILLER_4_71
*1447 FILLER_4_74
*1448 FILLER_4_77
*1449 FILLER_4_80
*1450 FILLER_4_83
*1451 FILLER_4_85
*1452 FILLER_4_88
*1453 FILLER_4_9
*1454 FILLER_4_91
*1455 FILLER_4_94
*1456 FILLER_4_97
*1457 FILLER_5_102
*1458 FILLER_5_105
*1459 FILLER_5_108
*1460 FILLER_5_111
*1461 FILLER_5_113
*1462 FILLER_5_116
*1463 FILLER_5_119
*1464 FILLER_5_12
*1465 FILLER_5_122
*1466 FILLER_5_125
*1467 FILLER_5_128
*1468 FILLER_5_131
*1469 FILLER_5_134
*1470 FILLER_5_137
*1471 FILLER_5_140
*1472 FILLER_5_143
*1473 FILLER_5_146
*1474 FILLER_5_149
*1475 FILLER_5_15
*1476 FILLER_5_152
*1477 FILLER_5_155
*1478 FILLER_5_158
*1479 FILLER_5_161
*1480 FILLER_5_164
*1481 FILLER_5_167
*1482 FILLER_5_169
*1483 FILLER_5_172
*1484 FILLER_5_175
*1485 FILLER_5_178
*1486 FILLER_5_18
*1487 FILLER_5_181
*1488 FILLER_5_184
*1489 FILLER_5_187
*1490 FILLER_5_21
*1491 FILLER_5_24
*1492 FILLER_5_27
*1493 FILLER_5_3
*1494 FILLER_5_30
*1495 FILLER_5_33
*1496 FILLER_5_36
*1497 FILLER_5_39
*1498 FILLER_5_42
*1499 FILLER_5_45
*1500 FILLER_5_48
*1501 FILLER_5_51
*1502 FILLER_5_54
*1503 FILLER_5_57
*1504 FILLER_5_6
*1505 FILLER_5_60
*1506 FILLER_5_63
*1507 FILLER_5_66
*1508 FILLER_5_69
*1509 FILLER_5_72
*1510 FILLER_5_75
*1511 FILLER_5_78
*1512 FILLER_5_81
*1513 FILLER_5_84
*1514 FILLER_5_87
*1515 FILLER_5_9
*1516 FILLER_5_90
*1517 FILLER_5_93
*1518 FILLER_5_96
*1519 FILLER_5_99
*1520 FILLER_6_100
*1521 FILLER_6_103
*1522 FILLER_6_106
*1523 FILLER_6_109
*1524 FILLER_6_112
*1525 FILLER_6_115
*1526 FILLER_6_118
*1527 FILLER_6_12
*1528 FILLER_6_121
*1529 FILLER_6_124
*1530 FILLER_6_127
*1531 FILLER_6_130
*1532 FILLER_6_133
*1533 FILLER_6_136
*1534 FILLER_6_139
*1535 FILLER_6_141
*1536 FILLER_6_144
*1537 FILLER_6_147
*1538 FILLER_6_15
*1539 FILLER_6_150
*1540 FILLER_6_153
*1541 FILLER_6_156
*1542 FILLER_6_159
*1543 FILLER_6_162
*1544 FILLER_6_165
*1545 FILLER_6_168
*1546 FILLER_6_171
*1547 FILLER_6_174
*1548 FILLER_6_177
*1549 FILLER_6_18
*1550 FILLER_6_180
*1551 FILLER_6_183
*1552 FILLER_6_186
*1553 FILLER_6_189
*1554 FILLER_6_21
*1555 FILLER_6_24
*1556 FILLER_6_27
*1557 FILLER_6_29
*1558 FILLER_6_3
*1559 FILLER_6_32
*1560 FILLER_6_35
*1561 FILLER_6_38
*1562 FILLER_6_41
*1563 FILLER_6_44
*1564 FILLER_6_47
*1565 FILLER_6_50
*1566 FILLER_6_53
*1567 FILLER_6_56
*1568 FILLER_6_59
*1569 FILLER_6_6
*1570 FILLER_6_62
*1571 FILLER_6_65
*1572 FILLER_6_68
*1573 FILLER_6_71
*1574 FILLER_6_74
*1575 FILLER_6_77
*1576 FILLER_6_80
*1577 FILLER_6_83
*1578 FILLER_6_85
*1579 FILLER_6_88
*1580 FILLER_6_9
*1581 FILLER_6_91
*1582 FILLER_6_94
*1583 FILLER_6_97
*1584 FILLER_7_102
*1585 FILLER_7_105
*1586 FILLER_7_108
*1587 FILLER_7_111
*1588 FILLER_7_113
*1589 FILLER_7_116
*1590 FILLER_7_119
*1591 FILLER_7_12
*1592 FILLER_7_122
*1593 FILLER_7_125
*1594 FILLER_7_128
*1595 FILLER_7_131
*1596 FILLER_7_134
*1597 FILLER_7_137
*1598 FILLER_7_140
*1599 FILLER_7_143
*1600 FILLER_7_146
*1601 FILLER_7_149
*1602 FILLER_7_15
*1603 FILLER_7_152
*1604 FILLER_7_155
*1605 FILLER_7_158
*1606 FILLER_7_161
*1607 FILLER_7_164
*1608 FILLER_7_167
*1609 FILLER_7_169
*1610 FILLER_7_172
*1611 FILLER_7_175
*1612 FILLER_7_178