* NGSPICE file created from characterization_top.ext - technology: ihp-sg13g2

* Black-box entry subcircuit for sg13g2_decap_8 abstract view
.subckt sg13g2_decap_8 VDD VSS
.ends

* Black-box entry subcircuit for sg13g2_fill_1 abstract view
.subckt sg13g2_fill_1 VDD VSS
.ends

* Black-box entry subcircuit for sg13g2_dfrbpq_1 abstract view
.subckt sg13g2_dfrbpq_1 Q CLK D RESET_B VDD VSS
.ends

* Black-box entry subcircuit for sg13g2_decap_4 abstract view
.subckt sg13g2_decap_4 VDD VSS
.ends

* Black-box entry subcircuit for sg13g2_dlygate4sd3_1 abstract view
.subckt sg13g2_dlygate4sd3_1 X A VDD VSS
.ends

* Black-box entry subcircuit for sg13g2_fill_2 abstract view
.subckt sg13g2_fill_2 VDD VSS
.ends

* Black-box entry subcircuit for sg13g2_inv_1 abstract view
.subckt sg13g2_inv_1 Y A VDD VSS
.ends

* Black-box entry subcircuit for sg13g2_mux2_1 abstract view
.subckt sg13g2_mux2_1 X A0 A1 S VDD VSS
.ends

* Black-box entry subcircuit for sg13g2_buf_1 abstract view
.subckt sg13g2_buf_1 X A VDD VSS
.ends

* Black-box entry subcircuit for sg13g2_nand2_1 abstract view
.subckt sg13g2_nand2_1 Y A B VDD VSS
.ends

* Black-box entry subcircuit for sg13g2_o21ai_1 abstract view
.subckt sg13g2_o21ai_1 Y A1 A2 B1 VDD VSS
.ends

* Black-box entry subcircuit for sg13g2_and2_1 abstract view
.subckt sg13g2_and2_1 X A B VDD VSS
.ends

* Black-box entry subcircuit for sg13g2_a22oi_1 abstract view
.subckt sg13g2_a22oi_1 Y A1 A2 B1 B2 VDD VSS
.ends

* Black-box entry subcircuit for sg13g2_nor3_1 abstract view
.subckt sg13g2_nor3_1 Y A B C VDD VSS
.ends

* Black-box entry subcircuit for sg13g2_nor2b_1 abstract view
.subckt sg13g2_nor2b_1 Y A B_N VDD VSS
.ends

* Black-box entry subcircuit for sg13g2_nand2b_1 abstract view
.subckt sg13g2_nand2b_1 Y A_N B VDD VSS
.ends

* Black-box entry subcircuit for sg13g2_a21oi_1 abstract view
.subckt sg13g2_a21oi_1 Y A1 A2 B1 VDD VSS
.ends

* Black-box entry subcircuit for sg13g2_nand3_1 abstract view
.subckt sg13g2_nand3_1 Y A B C VDD VSS
.ends

* Black-box entry subcircuit for sg13g2_a21o_1 abstract view
.subckt sg13g2_a21o_1 X A1 A2 B1 VDD VSS
.ends

* Black-box entry subcircuit for sg13g2_nor2_1 abstract view
.subckt sg13g2_nor2_1 Y A B VDD VSS
.ends

* Black-box entry subcircuit for sg13g2_buf_8 abstract view
.subckt sg13g2_buf_8 X A VDD VSS
.ends

* Black-box entry subcircuit for sg13g2_a221oi_1 abstract view
.subckt sg13g2_a221oi_1 Y A1 A2 B1 B2 C1 VDD VSS
.ends

* Black-box entry subcircuit for sg13g2_nand4_1 abstract view
.subckt sg13g2_nand4_1 Y A B C D VDD VSS
.ends

* Black-box entry subcircuit for sg13g2_inv_2 abstract view
.subckt sg13g2_inv_2 Y A VDD VSS
.ends

* Black-box entry subcircuit for sg13g2_or3_1 abstract view
.subckt sg13g2_or3_1 X A B C VDD VSS
.ends

* Black-box entry subcircuit for sg13g2_and3_1 abstract view
.subckt sg13g2_and3_1 X A B C VDD VSS
.ends

* Black-box entry subcircuit for sg13g2_inv_8 abstract view
.subckt sg13g2_inv_8 Y A VDD VSS
.ends

* Black-box entry subcircuit for sg13g2_or2_1 abstract view
.subckt sg13g2_or2_1 X A B VDD VSS
.ends

* Black-box entry subcircuit for sg13g2_buf_16 abstract view
.subckt sg13g2_buf_16 X A VDD VSS
.ends

* Black-box entry subcircuit for sg13g2_inv_4 abstract view
.subckt sg13g2_inv_4 Y A VDD VSS
.ends

* Black-box entry subcircuit for sg13g2_and4_1 abstract view
.subckt sg13g2_and4_1 X A B C D VDD VSS
.ends

* Black-box entry subcircuit for sg13g2_nand3b_1 abstract view
.subckt sg13g2_nand3b_1 Y A_N B C VDD VSS
.ends

* Black-box entry subcircuit for sg13g2_xnor2_1 abstract view
.subckt sg13g2_xnor2_1 Y A B VDD VSS
.ends

* Black-box entry subcircuit for sg13g2_or4_1 abstract view
.subckt sg13g2_or4_1 X A B C D VDD VSS
.ends

* Black-box entry subcircuit for sg13g2_tielo abstract view
.subckt sg13g2_tielo L_LO VDD VSS
.ends

* Black-box entry subcircuit for sg13g2_xor2_1 abstract view
.subckt sg13g2_xor2_1 X A B VDD VSS
.ends

* Black-box entry subcircuit for sg13g2_nor4_1 abstract view
.subckt sg13g2_nor4_1 Y A B C D VDD VSS
.ends

* Black-box entry subcircuit for sg13g2_antennanp abstract view
.subckt sg13g2_antennanp A VDD VSS
.ends

.subckt characterization_top VGND VPWR busy clk clk_bad_duty clk_fast clk_slow clk_stuck_high
+ clk_stuck_low clock_status_reg[0] clock_status_reg[1] clock_status_reg[2] clock_status_reg[3]
+ clock_status_reg[4] clock_status_reg[5] clock_status_reg[6] clock_status_reg[7]
+ corner_class_reg[0] corner_class_reg[1] corner_class_reg[2] delay_count_reg_0[0]
+ delay_count_reg_0[10] delay_count_reg_0[11] delay_count_reg_0[12] delay_count_reg_0[13]
+ delay_count_reg_0[14] delay_count_reg_0[15] delay_count_reg_0[1] delay_count_reg_0[2]
+ delay_count_reg_0[3] delay_count_reg_0[4] delay_count_reg_0[5] delay_count_reg_0[6]
+ delay_count_reg_0[7] delay_count_reg_0[8] delay_count_reg_0[9] delay_count_reg_1[0]
+ delay_count_reg_1[10] delay_count_reg_1[11] delay_count_reg_1[12] delay_count_reg_1[13]
+ delay_count_reg_1[14] delay_count_reg_1[15] delay_count_reg_1[1] delay_count_reg_1[2]
+ delay_count_reg_1[3] delay_count_reg_1[4] delay_count_reg_1[5] delay_count_reg_1[6]
+ delay_count_reg_1[7] delay_count_reg_1[8] delay_count_reg_1[9] delay_count_reg_2[0]
+ delay_count_reg_2[10] delay_count_reg_2[11] delay_count_reg_2[12] delay_count_reg_2[13]
+ delay_count_reg_2[14] delay_count_reg_2[15] delay_count_reg_2[1] delay_count_reg_2[2]
+ delay_count_reg_2[3] delay_count_reg_2[4] delay_count_reg_2[5] delay_count_reg_2[6]
+ delay_count_reg_2[7] delay_count_reg_2[8] delay_count_reg_2[9] done ro_clk_0 ro_clk_1
+ ro_clk_2 ro_count_reg_0[0] ro_count_reg_0[1] ro_count_reg_0[2] ro_count_reg_0[3]
+ ro_count_reg_0[4] ro_count_reg_0[5] ro_count_reg_0[6] ro_count_reg_0[7] ro_count_reg_1[0]
+ ro_count_reg_1[1] ro_count_reg_1[2] ro_count_reg_1[3] ro_count_reg_1[4] ro_count_reg_1[5]
+ ro_count_reg_1[6] ro_count_reg_1[7] ro_count_reg_2[0] ro_count_reg_2[1] ro_count_reg_2[2]
+ ro_count_reg_2[3] ro_count_reg_2[4] ro_count_reg_2[5] ro_count_reg_2[6] ro_count_reg_2[7]
+ rst start status_reg[0] status_reg[1] status_reg[2] status_reg[3] status_reg[4]
+ status_reg[5] status_reg[6] status_reg[7]
XFILLER_67_542 VPWR VGND sg13g2_decap_8
XFILLER_95_840 VPWR VGND sg13g2_decap_8
XFILLER_39_266 VPWR VGND sg13g2_decap_8
XFILLER_39_277 VPWR VGND sg13g2_fill_1
XFILLER_54_203 VPWR VGND sg13g2_decap_8
XFILLER_55_704 VPWR VGND sg13g2_decap_8
XFILLER_94_350 VPWR VGND sg13g2_decap_8
XFILLER_36_940 VPWR VGND sg13g2_decap_8
X_2106_ _2106_/Q clkload6/A _2106_/D _1663_/Y VPWR VGND sg13g2_dfrbpq_1
X_2037_ _2037_/Q clkload7/A _2037_/D _1864_/Y VPWR VGND sg13g2_dfrbpq_1
XFILLER_82_567 VPWR VGND sg13g2_decap_4
XFILLER_22_133 VPWR VGND sg13g2_decap_8
XFILLER_23_645 VPWR VGND sg13g2_decap_8
XFILLER_50_431 VPWR VGND sg13g2_decap_8
XFILLER_62_291 VPWR VGND sg13g2_decap_8
XFILLER_51_976 VPWR VGND sg13g2_decap_4
XFILLER_109_728 VPWR VGND sg13g2_decap_8
XFILLER_108_238 VPWR VGND sg13g2_decap_8
XFILLER_117_772 VPWR VGND sg13g2_decap_8
XFILLER_105_945 VPWR VGND sg13g2_decap_8
Xhold362 _1089_/B _2034_/Q VPWR VGND sg13g2_dlygate4sd3_1
Xhold351 _1953_/D _1337_/Y VPWR VGND sg13g2_dlygate4sd3_1
Xhold340 _1250_/A _1249_/Y VPWR VGND sg13g2_dlygate4sd3_1
XFILLER_7_7 VPWR VGND sg13g2_decap_8
XFILLER_104_455 VPWR VGND sg13g2_decap_8
XFILLER_117_77 VPWR VGND sg13g2_decap_8
XFILLER_2_549 VPWR VGND sg13g2_decap_8
Xhold395 _1354_/A _1999_/Q VPWR VGND sg13g2_dlygate4sd3_1
Xhold384 _1317_/A _1314_/Y VPWR VGND sg13g2_dlygate4sd3_1
Xhold373 _0965_/A _1965_/Q VPWR VGND sg13g2_dlygate4sd3_1
XFILLER_89_133 VPWR VGND sg13g2_decap_8
XFILLER_120_959 VPWR VGND sg13g2_decap_8
XFILLER_86_851 VPWR VGND sg13g2_decap_8
XFILLER_100_672 VPWR VGND sg13g2_decap_8
XFILLER_18_417 VPWR VGND sg13g2_decap_4
XFILLER_58_586 VPWR VGND sg13g2_decap_8
XFILLER_93_14 VPWR VGND sg13g2_decap_8
XFILLER_85_350 VPWR VGND sg13g2_decap_8
XFILLER_45_203 VPWR VGND sg13g2_decap_8
XFILLER_46_759 VPWR VGND sg13g2_decap_8
XFILLER_73_578 VPWR VGND sg13g2_decap_8
XFILLER_73_567 VPWR VGND sg13g2_fill_1
XFILLER_14_601 VPWR VGND sg13g2_decap_8
XFILLER_26_63 VPWR VGND sg13g2_decap_8
XFILLER_27_995 VPWR VGND sg13g2_decap_8
XFILLER_54_781 VPWR VGND sg13g2_decap_8
XFILLER_60_217 VPWR VGND sg13g2_decap_8
XFILLER_13_133 VPWR VGND sg13g2_decap_8
XFILLER_41_420 VPWR VGND sg13g2_fill_2
XFILLER_42_965 VPWR VGND sg13g2_decap_8
XFILLER_53_280 VPWR VGND sg13g2_decap_8
XFILLER_14_678 VPWR VGND sg13g2_decap_8
XFILLER_41_475 VPWR VGND sg13g2_decap_8
XFILLER_9_126 VPWR VGND sg13g2_decap_8
XFILLER_10_851 VPWR VGND sg13g2_decap_8
XFILLER_42_84 VPWR VGND sg13g2_decap_8
XFILLER_6_855 VPWR VGND sg13g2_decap_8
XFILLER_69_818 VPWR VGND sg13g2_fill_2
XFILLER_122_252 VPWR VGND sg13g2_decap_8
XFILLER_123_775 VPWR VGND sg13g2_decap_8
XFILLER_3_56 VPWR VGND sg13g2_decap_8
XFILLER_68_328 VPWR VGND sg13g2_fill_1
XFILLER_111_959 VPWR VGND sg13g2_decap_8
XFILLER_1_582 VPWR VGND sg13g2_decap_8
X_1270_ _1973_/D _1270_/A VPWR VGND sg13g2_inv_1
XFILLER_96_648 VPWR VGND sg13g2_decap_8
XFILLER_95_147 VPWR VGND sg13g2_decap_8
XFILLER_110_469 VPWR VGND sg13g2_decap_8
XFILLER_3_1007 VPWR VGND sg13g2_decap_8
XFILLER_67_70 VPWR VGND sg13g2_decap_8
XFILLER_77_873 VPWR VGND sg13g2_decap_4
XFILLER_76_350 VPWR VGND sg13g2_decap_8
XFILLER_36_203 VPWR VGND sg13g2_decap_8
XFILLER_37_726 VPWR VGND sg13g2_decap_8
XFILLER_49_586 VPWR VGND sg13g2_decap_8
XFILLER_24_409 VPWR VGND sg13g2_decap_4
XFILLER_64_545 VPWR VGND sg13g2_decap_8
XFILLER_92_854 VPWR VGND sg13g2_decap_8
XFILLER_18_984 VPWR VGND sg13g2_decap_8
XFILLER_45_792 VPWR VGND sg13g2_decap_8
XFILLER_51_217 VPWR VGND sg13g2_decap_8
XFILLER_52_729 VPWR VGND sg13g2_fill_2
XFILLER_91_364 VPWR VGND sg13g2_decap_8
XFILLER_44_291 VPWR VGND sg13g2_decap_8
XFILLER_83_91 VPWR VGND sg13g2_decap_8
XFILLER_33_976 VPWR VGND sg13g2_decap_8
XFILLER_32_486 VPWR VGND sg13g2_decap_8
XFILLER_121_1001 VPWR VGND sg13g2_decap_8
XFILLER_20_659 VPWR VGND sg13g2_decap_8
X_0985_ _2160_/D _1113_/B VPWR VGND sg13g2_inv_1
XFILLER_118_558 VPWR VGND sg13g2_decap_8
X_1606_ _1606_/X _2014_/Q hold509/X _1612_/S VPWR VGND sg13g2_mux2_1
XFILLER_99_420 VPWR VGND sg13g2_decap_8
XFILLER_114_742 VPWR VGND sg13g2_decap_8
XFILLER_113_252 VPWR VGND sg13g2_decap_8
X_1537_ _2139_/D _1537_/A VPWR VGND sg13g2_inv_1
Xfanout105 _1543_/A2 _1474_/Y VPWR VGND sg13g2_buf_1
Xfanout116 _1466_/B _1468_/B VPWR VGND sg13g2_buf_1
Xfanout127 _1261_/A2 _1255_/A2 VPWR VGND sg13g2_buf_1
Xfanout138 _1211_/A2 _0978_/Y VPWR VGND sg13g2_buf_1
XFILLER_99_497 VPWR VGND sg13g2_decap_8
XFILLER_87_637 VPWR VGND sg13g2_decap_8
XFILLER_102_959 VPWR VGND sg13g2_decap_8
X_1468_ _1468_/Y _1468_/A _1468_/B VPWR VGND sg13g2_nand2_1
Xfanout149 _1403_/B _1435_/A2 VPWR VGND sg13g2_buf_1
XFILLER_86_147 VPWR VGND sg13g2_decap_8
XFILLER_101_469 VPWR VGND sg13g2_decap_8
XFILLER_55_501 VPWR VGND sg13g2_decap_8
XFILLER_68_873 VPWR VGND sg13g2_decap_4
X_1399_ _1399_/Y _1401_/A1 _1398_/Y _1397_/Y VPWR VGND sg13g2_o21ai_1
XFILLER_83_810 VPWR VGND sg13g2_fill_1
XFILLER_27_203 VPWR VGND sg13g2_decap_8
XFILLER_103_35 VPWR VGND sg13g2_decap_8
XFILLER_28_759 VPWR VGND sg13g2_decap_8
XFILLER_83_876 VPWR VGND sg13g2_decap_8
XFILLER_24_921 VPWR VGND sg13g2_decap_8
XFILLER_42_217 VPWR VGND sg13g2_decap_8
XFILLER_55_578 VPWR VGND sg13g2_decap_8
XFILLER_63_28 VPWR VGND sg13g2_decap_8
XFILLER_70_537 VPWR VGND sg13g2_decap_8
XFILLER_82_364 VPWR VGND sg13g2_decap_8
XFILLER_35_280 VPWR VGND sg13g2_decap_8
XFILLER_51_740 VPWR VGND sg13g2_decap_8
XFILLER_24_998 VPWR VGND sg13g2_decap_8
XFILLER_11_648 VPWR VGND sg13g2_decap_8
XFILLER_50_294 VPWR VGND sg13g2_decap_8
XFILLER_10_147 VPWR VGND sg13g2_decap_8
XFILLER_12_21 VPWR VGND sg13g2_decap_8
XFILLER_109_525 VPWR VGND sg13g2_decap_8
XFILLER_12_98 VPWR VGND sg13g2_decap_8
XFILLER_3_825 VPWR VGND sg13g2_decap_8
XFILLER_88_14 VPWR VGND sg13g2_decap_8
XFILLER_105_742 VPWR VGND sg13g2_decap_8
XFILLER_2_357 VPWR VGND sg13g2_fill_2
XFILLER_104_252 VPWR VGND sg13g2_decap_8
XFILLER_78_637 VPWR VGND sg13g2_fill_2
XFILLER_120_756 VPWR VGND sg13g2_decap_8
XFILLER_78_648 VPWR VGND sg13g2_fill_1
XFILLER_77_147 VPWR VGND sg13g2_decap_8
XFILLER_59_851 VPWR VGND sg13g2_fill_2
XFILLER_18_203 VPWR VGND sg13g2_decap_8
XFILLER_37_84 VPWR VGND sg13g2_decap_8
XFILLER_46_556 VPWR VGND sg13g2_decap_8
XFILLER_33_217 VPWR VGND sg13g2_decap_8
XFILLER_34_718 VPWR VGND sg13g2_decap_8
XFILLER_74_887 VPWR VGND sg13g2_fill_1
XFILLER_73_364 VPWR VGND sg13g2_decap_8
XFILLER_14_420 VPWR VGND sg13g2_decap_8
XFILLER_14_431 VPWR VGND sg13g2_fill_2
XFILLER_27_792 VPWR VGND sg13g2_decap_8
XFILLER_15_965 VPWR VGND sg13g2_decap_8
XFILLER_42_762 VPWR VGND sg13g2_decap_8
XFILLER_30_946 VPWR VGND sg13g2_decap_8
XFILLER_5_140 VPWR VGND sg13g2_decap_8
XFILLER_6_652 VPWR VGND sg13g2_decap_8
XFILLER_115_539 VPWR VGND sg13g2_decap_8
XFILLER_123_572 VPWR VGND sg13g2_decap_8
XFILLER_38_4 VPWR VGND sg13g2_decap_8
XFILLER_97_924 VPWR VGND sg13g2_decap_8
XFILLER_111_756 VPWR VGND sg13g2_decap_8
XFILLER_25_1008 VPWR VGND sg13g2_decap_8
X_1322_ _1322_/X _1327_/A _1333_/B VPWR VGND sg13g2_and2_1
XFILLER_96_445 VPWR VGND sg13g2_decap_8
XFILLER_78_91 VPWR VGND sg13g2_decap_8
XFILLER_110_266 VPWR VGND sg13g2_decap_8
XFILLER_68_147 VPWR VGND sg13g2_decap_8
X_1253_ _1253_/Y _1980_/Q _1255_/A2 _1255_/B1 hold326/X VPWR VGND sg13g2_a22oi_1
XFILLER_37_523 VPWR VGND sg13g2_decap_8
XFILLER_25_707 VPWR VGND sg13g2_decap_8
XFILLER_64_320 VPWR VGND sg13g2_decap_4
X_1184_ _2014_/D _1184_/A VPWR VGND sg13g2_inv_1
XFILLER_92_651 VPWR VGND sg13g2_decap_8
XFILLER_18_781 VPWR VGND sg13g2_decap_8
XFILLER_24_217 VPWR VGND sg13g2_decap_8
XFILLER_91_161 VPWR VGND sg13g2_decap_8
XFILLER_17_280 VPWR VGND sg13g2_decap_8
XFILLER_17_291 VPWR VGND sg13g2_fill_2
XFILLER_52_537 VPWR VGND sg13g2_decap_8
XFILLER_33_773 VPWR VGND sg13g2_decap_8
XFILLER_21_924 VPWR VGND sg13g2_decap_8
XFILLER_60_570 VPWR VGND sg13g2_decap_8
XFILLER_119_801 VPWR VGND sg13g2_decap_8
XFILLER_20_434 VPWR VGND sg13g2_fill_1
XFILLER_118_322 VPWR VGND sg13g2_decap_8
X_0968_ _0968_/Y _0968_/A VPWR VGND sg13g2_inv_1
XFILLER_119_878 VPWR VGND sg13g2_decap_8
XFILLER_106_539 VPWR VGND sg13g2_decap_8
XFILLER_58_28 VPWR VGND sg13g2_decap_8
XFILLER_102_756 VPWR VGND sg13g2_decap_8
XFILLER_99_294 VPWR VGND sg13g2_decap_8
XFILLER_88_968 VPWR VGND sg13g2_decap_8
XFILLER_87_434 VPWR VGND sg13g2_decap_8
XFILLER_101_266 VPWR VGND sg13g2_decap_8
XFILLER_59_158 VPWR VGND sg13g2_decap_8
XFILLER_114_56 VPWR VGND sg13g2_decap_8
XFILLER_28_556 VPWR VGND sg13g2_decap_8
XFILLER_74_49 VPWR VGND sg13g2_decap_8
XFILLER_15_217 VPWR VGND sg13g2_decap_8
XFILLER_55_375 VPWR VGND sg13g2_decap_8
XFILLER_82_161 VPWR VGND sg13g2_decap_8
XFILLER_43_548 VPWR VGND sg13g2_decap_8
XFILLER_71_846 VPWR VGND sg13g2_fill_2
XFILLER_70_378 VPWR VGND sg13g2_decap_8
XFILLER_24_795 VPWR VGND sg13g2_decap_8
XFILLER_51_592 VPWR VGND sg13g2_decap_8
XFILLER_12_957 VPWR VGND sg13g2_decap_8
XFILLER_23_42 VPWR VGND sg13g2_decap_8
XFILLER_109_322 VPWR VGND sg13g2_decap_8
XFILLER_99_35 VPWR VGND sg13g2_decap_8
XFILLER_109_399 VPWR VGND sg13g2_decap_8
XFILLER_3_622 VPWR VGND sg13g2_decap_8
XFILLER_2_154 VPWR VGND sg13g2_decap_8
XFILLER_3_699 VPWR VGND sg13g2_decap_8
XFILLER_78_434 VPWR VGND sg13g2_decap_8
XFILLER_120_553 VPWR VGND sg13g2_decap_8
XFILLER_65_106 VPWR VGND sg13g2_decap_8
XFILLER_94_938 VPWR VGND sg13g2_decap_8
XFILLER_0_35 VPWR VGND sg13g2_decap_8
XFILLER_46_331 VPWR VGND sg13g2_decap_8
XFILLER_47_865 VPWR VGND sg13g2_decap_8
XFILLER_93_448 VPWR VGND sg13g2_decap_8
XFILLER_19_567 VPWR VGND sg13g2_decap_8
XFILLER_34_515 VPWR VGND sg13g2_decap_8
XFILLER_62_813 VPWR VGND sg13g2_fill_2
XFILLER_73_161 VPWR VGND sg13g2_decap_8
XFILLER_46_397 VPWR VGND sg13g2_fill_2
XFILLER_61_312 VPWR VGND sg13g2_decap_8
XFILLER_64_71 VPWR VGND sg13g2_decap_8
XFILLER_74_695 VPWR VGND sg13g2_decap_4
XFILLER_15_762 VPWR VGND sg13g2_decap_8
XFILLER_42_570 VPWR VGND sg13g2_decap_8
X_1940_ _1940_/Q clkload9/A _1940_/D _1767_/Y VPWR VGND sg13g2_dfrbpq_1
XFILLER_14_294 VPWR VGND sg13g2_decap_8
XFILLER_30_743 VPWR VGND sg13g2_decap_8
X_1871_ _1871_/Y _1878_/A VPWR VGND sg13g2_inv_1
XFILLER_9_77 VPWR VGND sg13g2_decap_8
XFILLER_119_119 VPWR VGND sg13g2_decap_8
XFILLER_31_1012 VPWR VGND sg13g2_decap_4
XFILLER_80_70 VPWR VGND sg13g2_decap_8
XFILLER_116_826 VPWR VGND sg13g2_decap_8
XFILLER_6_471 VPWR VGND sg13g2_fill_1
XFILLER_115_336 VPWR VGND sg13g2_decap_8
XFILLER_9_1013 VPWR VGND sg13g2_decap_4
XFILLER_69_445 VPWR VGND sg13g2_decap_8
XFILLER_97_721 VPWR VGND sg13g2_decap_8
XFILLER_111_553 VPWR VGND sg13g2_decap_8
XFILLER_29_0 VPWR VGND sg13g2_decap_8
X_1305_ _1305_/Y _1344_/A _1305_/B _1305_/C VPWR VGND sg13g2_nor3_1
XFILLER_96_242 VPWR VGND sg13g2_decap_8
XFILLER_97_798 VPWR VGND sg13g2_decap_8
XFILLER_38_854 VPWR VGND sg13g2_decap_8
XFILLER_65_640 VPWR VGND sg13g2_decap_8
X_1236_ _1990_/D _1236_/A VPWR VGND sg13g2_inv_1
XFILLER_84_448 VPWR VGND sg13g2_decap_8
XFILLER_25_504 VPWR VGND sg13g2_decap_8
XFILLER_52_301 VPWR VGND sg13g2_decap_8
X_1167_ _1168_/A hold524/X _1146_/B _1175_/B1 _0995_/B VPWR VGND sg13g2_a22oi_1
XFILLER_71_109 VPWR VGND sg13g2_decap_8
XFILLER_64_183 VPWR VGND sg13g2_decap_8
X_1098_ _1098_/Y _1098_/A _1097_/Y VPWR VGND sg13g2_nor2b_1
XFILLER_100_14 VPWR VGND sg13g2_decap_8
XFILLER_21_721 VPWR VGND sg13g2_decap_8
XFILLER_33_570 VPWR VGND sg13g2_decap_8
XFILLER_20_231 VPWR VGND sg13g2_decap_8
XFILLER_21_798 VPWR VGND sg13g2_decap_8
XFILLER_107_826 VPWR VGND sg13g2_decap_8
XFILLER_109_56 VPWR VGND sg13g2_decap_8
XFILLER_119_675 VPWR VGND sg13g2_decap_8
XFILLER_106_336 VPWR VGND sg13g2_decap_8
XFILLER_107_7 VPWR VGND sg13g2_decap_8
XFILLER_118_196 VPWR VGND sg13g2_decap_8
XFILLER_122_818 VPWR VGND sg13g2_decap_8
XFILLER_88_732 VPWR VGND sg13g2_decap_8
XFILLER_0_658 VPWR VGND sg13g2_decap_8
XFILLER_102_553 VPWR VGND sg13g2_decap_8
XFILLER_87_231 VPWR VGND sg13g2_decap_8
XFILLER_76_916 VPWR VGND sg13g2_fill_1
XFILLER_29_810 VPWR VGND sg13g2_decap_8
XFILLER_48_629 VPWR VGND sg13g2_decap_8
XFILLER_18_42 VPWR VGND sg13g2_decap_8
XFILLER_56_640 VPWR VGND sg13g2_decap_8
XFILLER_75_448 VPWR VGND sg13g2_decap_8
XFILLER_29_887 VPWR VGND sg13g2_decap_8
XFILLER_43_301 VPWR VGND sg13g2_decap_8
XFILLER_62_109 VPWR VGND sg13g2_decap_8
XFILLER_84_993 VPWR VGND sg13g2_decap_8
XFILLER_16_537 VPWR VGND sg13g2_decap_8
XFILLER_44_857 VPWR VGND sg13g2_decap_8
XFILLER_55_172 VPWR VGND sg13g2_decap_8
XFILLER_71_643 VPWR VGND sg13g2_fill_1
XFILLER_31_529 VPWR VGND sg13g2_decap_8
XFILLER_34_63 VPWR VGND sg13g2_decap_8
XFILLER_70_175 VPWR VGND sg13g2_decap_8
XFILLER_71_698 VPWR VGND sg13g2_decap_8
XFILLER_11_231 VPWR VGND sg13g2_decap_8
XFILLER_12_754 VPWR VGND sg13g2_decap_8
XFILLER_15_1007 VPWR VGND sg13g2_decap_8
XFILLER_24_592 VPWR VGND sg13g2_decap_8
XFILLER_8_747 VPWR VGND sg13g2_decap_8
XFILLER_7_224 VPWR VGND sg13g2_decap_8
XFILLER_50_84 VPWR VGND sg13g2_decap_8
XFILLER_109_196 VPWR VGND sg13g2_decap_8
XFILLER_4_975 VPWR VGND sg13g2_decap_8
XFILLER_98_518 VPWR VGND sg13g2_decap_8
XFILLER_59_60 VPWR VGND sg13g2_decap_8
XFILLER_121_840 VPWR VGND sg13g2_decap_8
XFILLER_22_7 VPWR VGND sg13g2_decap_8
XFILLER_79_765 VPWR VGND sg13g2_fill_1
XFILLER_78_231 VPWR VGND sg13g2_decap_8
XFILLER_120_350 VPWR VGND sg13g2_decap_8
XFILLER_94_735 VPWR VGND sg13g2_decap_8
XFILLER_66_459 VPWR VGND sg13g2_decap_8
X_2070_ _2070_/Q _2079_/CLK _2070_/D _1627_/Y VPWR VGND sg13g2_dfrbpq_1
XFILLER_93_245 VPWR VGND sg13g2_decap_8
XFILLER_35_824 VPWR VGND sg13g2_decap_8
XFILLER_47_662 VPWR VGND sg13g2_decap_8
X_1021_ _1029_/B hold393/X input7/X VPWR VGND sg13g2_nand2b_1
XFILLER_75_70 VPWR VGND sg13g2_decap_8
XFILLER_19_397 VPWR VGND sg13g2_decap_8
XFILLER_46_161 VPWR VGND sg13g2_decap_8
XFILLER_62_610 VPWR VGND sg13g2_fill_1
XFILLER_62_621 VPWR VGND sg13g2_decap_8
XFILLER_90_952 VPWR VGND sg13g2_decap_8
XFILLER_50_805 VPWR VGND sg13g2_decap_8
XFILLER_61_186 VPWR VGND sg13g2_decap_8
XFILLER_30_540 VPWR VGND sg13g2_decap_8
X_1923_ _1923_/Q clkload8/A _1923_/D _1750_/Y VPWR VGND sg13g2_dfrbpq_1
XFILLER_91_91 VPWR VGND sg13g2_decap_8
X_1854_ _1854_/Y _1888_/A VPWR VGND sg13g2_inv_1
XFILLER_116_623 VPWR VGND sg13g2_decap_8
X_1785_ _1785_/Y _1785_/A VPWR VGND sg13g2_inv_1
XFILLER_115_133 VPWR VGND sg13g2_decap_8
XFILLER_118_1006 VPWR VGND sg13g2_decap_8
XFILLER_89_518 VPWR VGND sg13g2_decap_8
XFILLER_112_840 VPWR VGND sg13g2_decap_8
XFILLER_69_242 VPWR VGND sg13g2_decap_8
XFILLER_111_350 VPWR VGND sg13g2_decap_8
XFILLER_69_286 VPWR VGND sg13g2_fill_1
XFILLER_97_595 VPWR VGND sg13g2_decap_8
XFILLER_57_437 VPWR VGND sg13g2_decap_8
XFILLER_85_757 VPWR VGND sg13g2_fill_1
XFILLER_84_245 VPWR VGND sg13g2_decap_8
XFILLER_38_651 VPWR VGND sg13g2_decap_8
XFILLER_44_109 VPWR VGND sg13g2_decap_8
XFILLER_55_18 VPWR VGND sg13g2_decap_8
X_1219_ _1998_/D _1219_/A VPWR VGND sg13g2_inv_1
XFILLER_25_301 VPWR VGND sg13g2_decap_8
XFILLER_26_835 VPWR VGND sg13g2_decap_8
XFILLER_37_161 VPWR VGND sg13g2_decap_8
XFILLER_53_643 VPWR VGND sg13g2_decap_8
XFILLER_81_930 VPWR VGND sg13g2_decap_8
XFILLER_77_1012 VPWR VGND sg13g2_fill_1
XFILLER_111_35 VPWR VGND sg13g2_decap_8
XFILLER_81_974 VPWR VGND sg13g2_fill_1
XFILLER_80_462 VPWR VGND sg13g2_decap_8
XFILLER_52_175 VPWR VGND sg13g2_decap_8
XFILLER_40_359 VPWR VGND sg13g2_decap_8
XFILLER_71_39 VPWR VGND sg13g2_decap_8
XFILLER_21_595 VPWR VGND sg13g2_decap_8
XFILLER_107_623 VPWR VGND sg13g2_decap_8
XFILLER_119_472 VPWR VGND sg13g2_decap_8
XFILLER_106_133 VPWR VGND sg13g2_decap_8
XFILLER_20_21 VPWR VGND sg13g2_decap_8
XFILLER_4_238 VPWR VGND sg13g2_decap_8
XFILLER_122_615 VPWR VGND sg13g2_decap_8
XFILLER_84_1016 VPWR VGND sg13g2_fill_1
XFILLER_20_98 VPWR VGND sg13g2_decap_8
XFILLER_96_25 VPWR VGND sg13g2_decap_8
XFILLER_103_840 VPWR VGND sg13g2_decap_8
XFILLER_121_147 VPWR VGND sg13g2_decap_8
XFILLER_1_967 VPWR VGND sg13g2_decap_8
XFILLER_102_350 VPWR VGND sg13g2_decap_8
XFILLER_48_426 VPWR VGND sg13g2_decap_8
XFILLER_88_595 VPWR VGND sg13g2_decap_8
XFILLER_29_63 VPWR VGND sg13g2_decap_8
XFILLER_75_245 VPWR VGND sg13g2_decap_8
XFILLER_17_813 VPWR VGND sg13g2_decap_8
XFILLER_16_301 VPWR VGND sg13g2_decap_8
XFILLER_28_161 VPWR VGND sg13g2_decap_8
XFILLER_29_684 VPWR VGND sg13g2_decap_8
XFILLER_91_749 VPWR VGND sg13g2_decap_8
XFILLER_44_654 VPWR VGND sg13g2_decap_8
XFILLER_90_259 VPWR VGND sg13g2_decap_8
XFILLER_71_451 VPWR VGND sg13g2_decap_8
XFILLER_43_175 VPWR VGND sg13g2_decap_8
XFILLER_45_84 VPWR VGND sg13g2_decap_8
XFILLER_12_551 VPWR VGND sg13g2_decap_8
XFILLER_8_544 VPWR VGND sg13g2_decap_8
XFILLER_6_56 VPWR VGND sg13g2_decap_8
X_1570_ _2112_/D _1418_/A hold460/X _1592_/S VPWR VGND sg13g2_mux2_1
XFILLER_99_805 VPWR VGND sg13g2_decap_8
XFILLER_113_637 VPWR VGND sg13g2_decap_8
XFILLER_4_772 VPWR VGND sg13g2_decap_8
XFILLER_98_315 VPWR VGND sg13g2_decap_8
XFILLER_112_147 VPWR VGND sg13g2_decap_8
XFILLER_39_404 VPWR VGND sg13g2_decap_4
XFILLER_67_713 VPWR VGND sg13g2_decap_8
XFILLER_6_1016 VPWR VGND sg13g2_fill_1
X_2122_ _2122_/Q _2122_/CLK _2122_/D _1679_/Y VPWR VGND sg13g2_dfrbpq_1
XFILLER_94_532 VPWR VGND sg13g2_decap_8
XFILLER_86_91 VPWR VGND sg13g2_decap_8
XFILLER_54_407 VPWR VGND sg13g2_decap_8
XFILLER_54_418 VPWR VGND sg13g2_decap_8
XFILLER_55_919 VPWR VGND sg13g2_decap_8
XFILLER_66_256 VPWR VGND sg13g2_decap_8
XFILLER_82_705 VPWR VGND sg13g2_decap_4
XFILLER_19_161 VPWR VGND sg13g2_decap_8
XFILLER_35_621 VPWR VGND sg13g2_decap_8
X_2053_ _2053_/Q clkload1/A _2053_/D _1880_/Y VPWR VGND sg13g2_dfrbpq_1
XFILLER_62_440 VPWR VGND sg13g2_decap_8
XFILLER_63_952 VPWR VGND sg13g2_decap_8
X_1004_ _1005_/D _0995_/C _1007_/B _0995_/B VPWR VGND sg13g2_a21oi_1
XFILLER_81_259 VPWR VGND sg13g2_decap_8
XFILLER_23_827 VPWR VGND sg13g2_decap_8
XFILLER_34_175 VPWR VGND sg13g2_decap_8
XFILLER_35_698 VPWR VGND sg13g2_decap_8
XFILLER_50_613 VPWR VGND sg13g2_decap_8
XFILLER_22_337 VPWR VGND sg13g2_decap_8
XFILLER_31_893 VPWR VGND sg13g2_decap_8
X_1906_ _1906_/Q _2129_/CLK _1906_/D _1733_/Y VPWR VGND sg13g2_dfrbpq_1
X_1837_ _1837_/Y _1837_/A VPWR VGND sg13g2_inv_1
XFILLER_116_420 VPWR VGND sg13g2_decap_8
XFILLER_117_954 VPWR VGND sg13g2_decap_8
Xhold511 hold511/X _2004_/Q VPWR VGND sg13g2_dlygate4sd3_1
Xhold500 _0961_/A _2020_/Q VPWR VGND sg13g2_dlygate4sd3_1
X_1768_ _1768_/Y _1787_/A VPWR VGND sg13g2_inv_1
Xhold544 _1524_/A _2144_/Q VPWR VGND sg13g2_dlygate4sd3_1
Xhold533 _1192_/A _1191_/Y VPWR VGND sg13g2_dlygate4sd3_1
Xhold522 _0969_/A _2143_/Q VPWR VGND sg13g2_dlygate4sd3_1
XFILLER_104_637 VPWR VGND sg13g2_decap_8
XFILLER_116_497 VPWR VGND sg13g2_decap_8
X_1699_ _1699_/Y _1711_/A VPWR VGND sg13g2_inv_1
Xhold588 _1964_/D _1301_/X VPWR VGND sg13g2_dlygate4sd3_1
Xhold577 hold577/X _2023_/Q VPWR VGND sg13g2_dlygate4sd3_1
Xhold566 _1960_/D _1310_/Y VPWR VGND sg13g2_dlygate4sd3_1
Xhold555 _1002_/C _1001_/Y VPWR VGND sg13g2_dlygate4sd3_1
XFILLER_89_315 VPWR VGND sg13g2_decap_8
XFILLER_103_147 VPWR VGND sg13g2_decap_8
XFILLER_106_35 VPWR VGND sg13g2_decap_8
XFILLER_44_1011 VPWR VGND sg13g2_decap_4
Xhold599 _1050_/A _2046_/Q VPWR VGND sg13g2_dlygate4sd3_1
XFILLER_58_724 VPWR VGND sg13g2_decap_8
XFILLER_98_882 VPWR VGND sg13g2_decap_8
XFILLER_100_854 VPWR VGND sg13g2_decap_8
XFILLER_66_39 VPWR VGND sg13g2_decap_8
XFILLER_97_392 VPWR VGND sg13g2_decap_8
XFILLER_85_532 VPWR VGND sg13g2_decap_8
XFILLER_57_256 VPWR VGND sg13g2_decap_8
XFILLER_73_727 VPWR VGND sg13g2_decap_8
XFILLER_122_56 VPWR VGND sg13g2_decap_8
XFILLER_26_632 VPWR VGND sg13g2_decap_8
XFILLER_53_440 VPWR VGND sg13g2_decap_8
XFILLER_15_21 VPWR VGND sg13g2_decap_8
XFILLER_25_175 VPWR VGND sg13g2_decap_8
XFILLER_82_49 VPWR VGND sg13g2_decap_8
XFILLER_40_112 VPWR VGND sg13g2_decap_8
XFILLER_41_657 VPWR VGND sg13g2_decap_8
XFILLER_15_98 VPWR VGND sg13g2_decap_8
XFILLER_22_860 VPWR VGND sg13g2_decap_8
XFILLER_9_308 VPWR VGND sg13g2_fill_2
XFILLER_40_189 VPWR VGND sg13g2_decap_8
XFILLER_108_910 VPWR VGND sg13g2_decap_8
XFILLER_31_42 VPWR VGND sg13g2_decap_8
XFILLER_107_420 VPWR VGND sg13g2_decap_8
XFILLER_119_280 VPWR VGND sg13g2_decap_8
XFILLER_108_987 VPWR VGND sg13g2_decap_8
XFILLER_5_558 VPWR VGND sg13g2_decap_8
XFILLER_107_497 VPWR VGND sg13g2_decap_8
XFILLER_123_957 VPWR VGND sg13g2_decap_8
Xoutput20 corner_class_reg[2] _2146_/Q VPWR VGND sg13g2_buf_1
Xoutput31 delay_count_reg_0[4] _2092_/Q VPWR VGND sg13g2_buf_1
Xoutput42 delay_count_reg_1[14] _2118_/Q VPWR VGND sg13g2_buf_1
Xoutput53 delay_count_reg_2[0] _2120_/Q VPWR VGND sg13g2_buf_1
Xoutput64 delay_count_reg_2[5] _2125_/Q VPWR VGND sg13g2_buf_1
Xoutput75 ro_count_reg_0[5] _2069_/Q VPWR VGND sg13g2_buf_1
XFILLER_89_860 VPWR VGND sg13g2_decap_8
XFILLER_0_252 VPWR VGND sg13g2_decap_8
XFILLER_0_263 VPWR VGND sg13g2_decap_8
XFILLER_122_489 VPWR VGND sg13g2_decap_8
XFILLER_1_764 VPWR VGND sg13g2_decap_8
XFILLER_49_702 VPWR VGND sg13g2_decap_8
Xoutput86 ro_count_reg_2[0] _2080_/Q VPWR VGND sg13g2_buf_1
Xoutput97 status_reg[3] _2142_/Q VPWR VGND sg13g2_buf_1
XFILLER_95_329 VPWR VGND sg13g2_decap_8
XFILLER_37_908 VPWR VGND sg13g2_decap_8
XFILLER_88_392 VPWR VGND sg13g2_decap_8
XFILLER_76_532 VPWR VGND sg13g2_decap_8
XFILLER_36_418 VPWR VGND sg13g2_decap_8
XFILLER_48_245 VPWR VGND sg13g2_decap_8
XFILLER_17_610 VPWR VGND sg13g2_decap_8
XFILLER_29_481 VPWR VGND sg13g2_decap_8
XFILLER_91_546 VPWR VGND sg13g2_decap_8
XFILLER_45_974 VPWR VGND sg13g2_decap_8
XFILLER_63_259 VPWR VGND sg13g2_decap_8
XFILLER_16_175 VPWR VGND sg13g2_decap_8
XFILLER_17_687 VPWR VGND sg13g2_decap_8
XFILLER_44_451 VPWR VGND sg13g2_decap_8
XFILLER_31_112 VPWR VGND sg13g2_decap_8
XFILLER_72_60 VPWR VGND sg13g2_decap_8
XFILLER_71_292 VPWR VGND sg13g2_fill_2
XFILLER_71_270 VPWR VGND sg13g2_decap_8
XFILLER_32_668 VPWR VGND sg13g2_decap_8
XFILLER_60_977 VPWR VGND sg13g2_fill_2
XFILLER_31_189 VPWR VGND sg13g2_decap_8
XFILLER_9_831 VPWR VGND sg13g2_decap_8
XFILLER_117_217 VPWR VGND sg13g2_decap_8
XFILLER_12_392 VPWR VGND sg13g2_fill_1
X_1622_ _2151_/D _1622_/A _1622_/B VPWR VGND sg13g2_nand2_1
XFILLER_99_602 VPWR VGND sg13g2_decap_8
XFILLER_114_924 VPWR VGND sg13g2_decap_8
X_1553_ _2129_/D _1379_/A hold408/X _1589_/S VPWR VGND sg13g2_mux2_1
XFILLER_98_112 VPWR VGND sg13g2_decap_8
XFILLER_113_434 VPWR VGND sg13g2_decap_8
X_1484_ _1544_/B input2/X _1484_/B VPWR VGND sg13g2_nand2_1
XFILLER_99_679 VPWR VGND sg13g2_decap_8
XFILLER_87_808 VPWR VGND sg13g2_decap_4
XFILLER_98_189 VPWR VGND sg13g2_decap_8
XFILLER_86_329 VPWR VGND sg13g2_decap_8
XFILLER_67_521 VPWR VGND sg13g2_decap_8
XFILLER_79_392 VPWR VGND sg13g2_decap_8
XFILLER_11_0 VPWR VGND sg13g2_decap_8
XFILLER_39_245 VPWR VGND sg13g2_decap_8
XFILLER_48_790 VPWR VGND sg13g2_decap_8
XFILLER_67_598 VPWR VGND sg13g2_decap_4
X_2105_ _2105_/Q _2122_/CLK _2105_/D _1662_/Y VPWR VGND sg13g2_dfrbpq_1
XFILLER_95_896 VPWR VGND sg13g2_decap_8
XFILLER_54_259 VPWR VGND sg13g2_decap_8
X_2036_ _2036_/Q clkload5/A _2036_/D _1863_/Y VPWR VGND sg13g2_dfrbpq_1
XFILLER_82_546 VPWR VGND sg13g2_decap_8
XFILLER_70_719 VPWR VGND sg13g2_decap_8
XFILLER_23_624 VPWR VGND sg13g2_decap_8
XFILLER_36_996 VPWR VGND sg13g2_decap_8
XFILLER_22_112 VPWR VGND sg13g2_decap_8
XFILLER_35_495 VPWR VGND sg13g2_decap_8
XFILLER_62_270 VPWR VGND sg13g2_decap_8
XFILLER_22_189 VPWR VGND sg13g2_decap_8
XFILLER_31_690 VPWR VGND sg13g2_decap_8
XFILLER_50_487 VPWR VGND sg13g2_decap_8
XFILLER_109_707 VPWR VGND sg13g2_decap_8
XFILLER_108_217 VPWR VGND sg13g2_decap_8
XFILLER_117_751 VPWR VGND sg13g2_decap_8
XFILLER_105_924 VPWR VGND sg13g2_decap_8
XFILLER_2_528 VPWR VGND sg13g2_decap_8
Xhold330 hold330/X _1987_/Q VPWR VGND sg13g2_dlygate4sd3_1
Xhold352 hold352/X _1968_/Q VPWR VGND sg13g2_dlygate4sd3_1
Xhold341 hold341/X _1966_/Q VPWR VGND sg13g2_dlygate4sd3_1
XFILLER_89_112 VPWR VGND sg13g2_decap_8
XFILLER_104_434 VPWR VGND sg13g2_decap_8
XFILLER_116_294 VPWR VGND sg13g2_decap_8
XFILLER_117_56 VPWR VGND sg13g2_decap_8
Xhold396 _1999_/D _1215_/Y VPWR VGND sg13g2_dlygate4sd3_1
Xhold385 _1371_/A _1943_/Q VPWR VGND sg13g2_dlygate4sd3_1
Xhold374 hold374/X _1978_/Q VPWR VGND sg13g2_dlygate4sd3_1
Xhold363 hold363/X _1093_/Y VPWR VGND sg13g2_dlygate4sd3_1
XFILLER_120_938 VPWR VGND sg13g2_decap_8
XFILLER_89_189 VPWR VGND sg13g2_decap_8
XFILLER_77_49 VPWR VGND sg13g2_decap_8
XFILLER_77_329 VPWR VGND sg13g2_decap_8
XFILLER_100_651 VPWR VGND sg13g2_decap_8
XFILLER_58_565 VPWR VGND sg13g2_decap_8
XFILLER_46_738 VPWR VGND sg13g2_decap_8