*SPEF "ieee 1481-1999"
*DESIGN "characterization_top"
*DATE "09:27:50 Friday June 19, 2026"
*VENDOR "The OpenROAD Project"
*PROGRAM "OpenROAD"
*VERSION "26Q1-1024-gdcf36133a"
*DESIGN_FLOW "NAME_SCOPE LOCAL" "PIN_CAP NONE"
*DIVIDER /
*DELIMITER :
*BUS_DELIMITER []
*T_UNIT 1 NS
*C_UNIT 1 PF
*R_UNIT 1 OHM
*L_UNIT 1 HENRY

*NAME_MAP
*3 busy
*4 clk
*5 clk_bad_duty
*6 clk_fast
*7 clk_slow
*8 clk_stuck_high
*9 clk_stuck_low
*10 clock_status_reg[0]
*11 clock_status_reg[1]
*12 clock_status_reg[2]
*13 clock_status_reg[3]
*14 clock_status_reg[4]
*15 clock_status_reg[5]
*16 net
*17 net209
*18 corner_class_reg[0]
*19 corner_class_reg[1]
*20 corner_class_reg[2]
*21 delay_count_reg_0[0]
*22 delay_count_reg_0[10]
*23 delay_count_reg_0[11]
*24 delay_count_reg_0[12]
*25 delay_count_reg_0[13]
*26 delay_count_reg_0[14]
*27 delay_count_reg_0[15]
*28 delay_count_reg_0[1]
*29 delay_count_reg_0[2]
*30 delay_count_reg_0[3]
*31 delay_count_reg_0[4]
*32 delay_count_reg_0[5]
*33 delay_count_reg_0[6]
*34 delay_count_reg_0[7]
*35 delay_count_reg_0[8]
*36 delay_count_reg_0[9]
*37 delay_count_reg_1[0]
*38 delay_count_reg_1[10]
*39 delay_count_reg_1[11]
*40 delay_count_reg_1[12]
*41 delay_count_reg_1[13]
*42 delay_count_reg_1[14]
*43 delay_count_reg_1[15]
*44 delay_count_reg_1[1]
*45 delay_count_reg_1[2]
*46 delay_count_reg_1[3]
*47 delay_count_reg_1[4]
*48 delay_count_reg_1[5]
*49 delay_count_reg_1[6]
*50 delay_count_reg_1[7]
*51 delay_count_reg_1[8]
*52 delay_count_reg_1[9]
*53 delay_count_reg_2[0]
*54 delay_count_reg_2[10]
*55 delay_count_reg_2[11]
*56 delay_count_reg_2[12]
*57 delay_count_reg_2[13]
*58 delay_count_reg_2[14]
*59 delay_count_reg_2[15]
*60 delay_count_reg_2[1]
*61 delay_count_reg_2[2]
*62 delay_count_reg_2[3]
*63 delay_count_reg_2[4]
*64 delay_count_reg_2[5]
*65 delay_count_reg_2[6]
*66 delay_count_reg_2[7]
*67 delay_count_reg_2[8]
*68 delay_count_reg_2[9]
*69 done
*70 ro_clk_0
*71 ro_clk_1
*72 ro_clk_2
*73 ro_count_reg_0[0]
*74 ro_count_reg_0[1]
*75 ro_count_reg_0[2]
*76 ro_count_reg_0[3]
*77 ro_count_reg_0[4]
*78 ro_count_reg_0[5]
*79 ro_count_reg_0[6]
*80 ro_count_reg_0[7]
*81 ro_count_reg_1[0]
*82 ro_count_reg_1[1]
*83 ro_count_reg_1[2]
*84 ro_count_reg_1[3]
*85 ro_count_reg_1[4]
*86 ro_count_reg_1[5]
*87 ro_count_reg_1[6]
*88 ro_count_reg_1[7]
*89 ro_count_reg_2[0]
*90 ro_count_reg_2[1]
*91 ro_count_reg_2[2]
*92 ro_count_reg_2[3]
*93 ro_count_reg_2[4]
*94 ro_count_reg_2[5]
*95 ro_count_reg_2[6]
*96 ro_count_reg_2[7]
*97 rst
*98 start
*99 status_reg[0]
*100 status_reg[1]
*101 status_reg[2]
*102 status_reg[3]
*103 status_reg[4]
*104 status_reg[5]
*105 status_reg[6]
*106 status_reg[7]
*107 _0000_
*108 _0001_
*109 _0002_
*110 _0003_
*111 _0004_
*112 _0005_
*113 _0006_
*114 _0007_
*115 _0008_
*116 _0009_
*117 _0010_
*118 _0011_
*119 _0012_
*120 _0013_
*121 _0014_
*122 _0015_
*123 _0016_
*124 _0017_
*125 _0018_
*126 _0019_
*127 _0020_
*128 _0021_
*129 _0022_
*130 _0023_
*131 _0024_
*132 _0025_
*133 _0026_
*134 _0027_
*135 _0028_
*136 _0029_
*137 _0030_
*138 _0031_
*139 _0032_
*140 _0033_
*141 _0034_
*142 _0035_
*143 _0036_
*144 _0037_
*145 _0038_
*146 _0039_
*147 _0040_
*148 _0041_
*149 _0042_
*150 _0043_
*151 _0044_
*152 _0045_
*153 _0046_
*154 _0047_
*155 _0048_
*156 _0049_
*157 _0050_
*158 _0051_
*159 _0052_
*160 _0053_
*161 _0054_
*162 _0055_
*163 _0056_
*164 _0057_
*165 _0058_
*166 _0059_
*167 _0060_
*168 _0061_
*169 _0062_
*170 _0063_
*171 _0064_
*172 _0065_
*173 _0066_
*174 _0067_
*175 _0068_
*176 _0069_
*177 _0070_
*178 _0071_
*179 _0072_
*180 _0073_
*181 _0074_
*182 _0075_
*183 _0076_
*184 _0077_
*185 _0078_
*186 _0079_
*187 _0080_
*188 _0081_
*189 _0082_
*190 _0083_
*191 _0084_
*192 _0085_
*193 _0086_
*194 _0087_
*195 _0088_
*196 _0089_
*197 _0090_
*198 _0091_
*199 _0092_
*200 _0093_
*201 _0094_
*202 _0095_
*203 _0096_
*204 _0097_
*205 _0098_
*206 _0099_
*207 _0100_
*208 _0101_
*209 _0102_
*210 _0103_
*211 _0104_
*212 _0105_
*213 _0106_
*214 _0107_
*215 _0108_
*216 _0109_
*217 _0110_
*218 _0111_
*219 _0112_
*220 _0113_
*221 _0114_
*222 _0115_
*223 _0116_
*224 _0117_
*225 _0118_
*226 _0119_
*227 _0120_
*228 _0121_
*229 _0122_
*230 _0123_
*231 _0124_
*232 _0125_
*233 _0126_
*234 _0127_
*235 _0128_
*236 _0129_
*237 _0130_
*238 _0131_
*239 _0132_
*240 _0133_
*241 _0134_
*242 _0135_
*243 _0136_
*244 _0137_
*245 _0138_
*246 _0139_
*247 _0140_
*248 _0141_
*249 _0142_
*250 _0143_
*251 _0144_
*252 _0145_
*253 _0146_
*254 _0147_
*255 _0148_
*256 _0149_
*257 _0150_
*258 _0151_
*259 _0152_
*260 _0153_
*261 _0154_
*262 _0155_
*263 _0156_
*264 _0157_
*265 _0158_
*266 _0159_
*267 _0160_
*268 _0161_
*269 _0162_
*270 _0163_
*271 _0164_
*272 _0165_
*273 _0166_
*274 _0167_
*275 _0168_
*276 _0169_
*277 _0170_
*278 _0171_
*279 _0172_
*280 _0173_
*281 _0174_
*282 _0175_
*283 _0176_
*284 _0177_
*285 _0178_
*286 _0179_
*287 _0180_
*288 _0181_
*289 _0182_
*290 _0183_
*291 _0184_
*292 _0185_
*293 _0186_
*294 _0187_
*295 _0188_
*296 _0189_
*297 _0190_
*298 _0191_
*299 _0192_
*300 _0193_
*301 _0194_
*302 _0195_
*303 _0196_
*304 _0197_
*305 _0198_
*306 _0199_
*307 _0200_
*308 _0201_
*309 _0202_
*310 _0203_
*311 _0204_
*312 _0205_
*313 _0206_
*314 _0207_
*315 _0208_
*316 _0209_
*317 _0210_
*318 _0211_
*319 _0212_
*320 _0213_
*321 _0214_
*322 _0215_
*323 _0216_
*324 _0217_
*325 _0218_
*326 _0219_
*327 _0220_
*328 _0221_
*329 _0222_
*330 _0223_
*331 _0224_
*332 _0225_
*333 _0226_
*334 _0227_
*335 _0228_
*336 _0229_
*337 _0230_
*338 _0231_
*339 _0232_
*340 _0233_
*341 _0234_
*342 _0235_
*343 _0236_
*344 _0237_
*345 _0238_
*346 _0239_
*347 _0240_
*348 _0241_
*349 _0242_
*350 _0243_
*351 _0244_
*352 _0245_
*353 _0246_
*354 _0247_
*355 _0248_
*356 _0249_
*357 _0250_
*358 _0251_
*359 _0252_
*360 _0253_
*361 _0254_
*362 _0255_
*363 _0256_
*364 _0257_
*365 _0258_
*366 _0259_
*367 _0260_
*368 _0261_
*369 _0262_
*370 _0263_
*371 _0264_
*372 _0265_
*373 _0266_
*374 _0267_
*375 _0268_
*376 _0269_
*377 _0270_
*378 _0271_
*379 _0272_
*380 _0273_
*381 _0274_
*382 _0275_
*383 _0276_
*384 _0277_
*385 _0278_
*386 _0279_
*387 _0280_
*388 _0281_
*389 _0282_
*390 _0283_
*391 _0284_
*392 _0285_
*393 _0286_
*394 _0287_
*395 _0288_
*396 _0289_
*397 _0290_
*398 _0291_
*399 _0292_
*400 _0293_
*401 _0294_
*402 _0295_
*403 _0296_
*404 _0297_
*405 _0298_
*406 _0299_
*407 _0300_
*408 _0301_
*409 _0302_
*410 _0303_
*411 _0304_
*412 _0305_
*413 _0306_
*414 _0307_
*415 _0308_
*416 _0309_
*417 _0310_
*418 _0311_
*419 _0312_
*420 _0313_
*421 _0314_
*422 _0315_
*423 _0316_
*424 _0317_
*425 _0318_
*426 _0319_
*427 _0320_
*428 _0321_
*429 _0322_
*430 _0323_
*431 _0324_
*432 _0325_
*433 _0326_
*434 _0327_
*435 _0328_
*436 _0329_
*437 _0330_
*438 _0331_
*439 _0332_
*440 _0333_
*441 _0334_
*442 _0335_
*443 _0336_
*444 _0337_
*445 _0338_
*446 _0339_
*447 _0340_
*448 _0341_
*449 _0342_
*450 _0343_
*451 _0344_
*452 _0345_
*453 _0346_
*454 _0347_
*455 _0348_
*456 _0349_
*457 _0350_
*458 _0351_
*459 _0352_
*460 _0353_
*461 _0354_
*462 _0355_
*463 _0356_
*464 _0357_
*465 _0358_
*466 _0359_
*467 _0360_
*468 _0361_
*469 _0362_
*470 _0363_
*471 _0364_
*472 _0365_
*473 _0366_
*474 _0367_
*475 _0368_
*476 _0369_
*477 _0370_
*478 _0371_
*479 _0372_
*480 _0373_
*481 _0374_
*482 _0375_
*483 _0376_
*484 _0377_
*485 _0378_
*486 _0379_
*487 _0380_
*488 _0381_
*489 _0382_
*490 _0383_
*491 _0384_
*492 _0385_
*493 _0386_
*494 _0387_
*495 _0388_
*496 _0389_
*497 _0390_
*498 _0391_
*499 _0392_
*500 _0393_
*501 _0394_
*502 _0395_
*503 _0396_
*504 _0397_
*505 _0398_
*506 _0399_
*507 _0400_
*508 _0401_
*509 _0402_
*510 _0403_
*511 _0404_
*512 _0405_
*513 _0406_
*514 _0407_
*515 _0408_
*516 _0409_
*517 _0410_
*518 _0411_
*519 _0412_
*520 _0413_
*521 _0414_
*522 _0415_
*523 _0416_
*524 _0417_
*525 _0418_
*526 _0419_
*527 _0420_
*528 _0421_
*529 _0422_
*530 _0423_
*531 _0424_
*532 _0425_
*533 _0426_
*534 _0427_
*535 _0428_
*536 _0429_
*537 _0430_
*538 _0431_
*539 _0432_
*540 _0433_
*541 _0434_
*542 _0435_
*543 _0436_
*544 _0437_
*545 _0438_
*546 _0439_
*547 _0440_
*548 _0441_
*549 _0442_
*550 _0443_
*551 _0444_
*552 _0445_
*553 _0446_
*554 _0447_
*555 _0448_
*556 _0449_
*557 _0450_
*558 _0451_
*559 _0452_
*560 _0453_
*561 _0454_
*562 _0455_
*563 _0456_
*564 _0457_
*565 _0458_
*566 _0459_
*567 _0460_
*568 _0461_
*569 _0462_
*570 _0463_
*571 _0464_
*572 _0465_
*573 _0466_
*574 _0467_
*575 _0468_
*576 _0469_
*577 _0470_
*578 _0471_
*579 _0472_
*580 _0473_
*581 _0474_
*582 _0475_
*583 _0476_
*584 _0477_
*585 _0478_
*586 _0479_
*587 _0480_
*588 _0481_
*589 _0482_
*590 _0483_
*591 _0484_
*592 _0485_
*593 _0486_
*594 _0487_
*595 _0488_
*596 _0489_
*597 _0490_
*598 _0491_
*599 _0492_
*600 _0493_
*601 _0494_
*602 _0495_
*603 _0496_
*604 _0497_
*605 _0498_
*606 _0499_
*607 _0500_
*608 _0501_
*609 _0502_
*610 _0503_
*611 _0504_
*612 _0505_
*613 _0506_
*614 _0507_
*615 _0508_
*616 _0509_
*617 _0510_
*618 _0511_
*619 _0512_
*620 _0513_
*621 _0514_
*622 _0515_
*623 _0516_
*624 _0517_
*625 _0518_
*626 _0519_
*627 _0520_
*628 _0521_
*629 _0522_
*630 _0523_
*631 _0524_
*632 _0525_
*633 _0526_
*634 _0527_
*635 _0528_
*636 _0529_
*637 _0530_
*638 _0531_
*639 _0532_
*640 _0533_
*641 _0534_
*642 _0535_
*643 _0536_
*644 _0537_
*645 _0538_
*646 _0539_
*647 _0540_
*648 _0541_
*649 _0542_
*650 _0543_
*651 _0544_
*652 _0545_
*653 _0546_
*654 _0547_
*655 _0548_
*656 _0549_
*657 _0550_
*658 _0551_
*659 _0552_
*660 _0553_
*661 _0554_
*662 _0555_
*663 _0556_
*664 _0557_
*665 _0558_
*666 _0559_
*667 _0560_
*668 _0561_
*669 _0562_
*670 _0563_
*671 _0564_
*672 _0565_
*673 _0566_
*674 _0567_
*675 _0568_
*676 _0569_
*677 _0570_
*678 _0571_
*679 _0572_
*680 _0573_
*681 _0574_
*682 _0575_
*683 _0576_
*684 _0577_
*685 _0578_
*686 _0579_
*687 _0580_
*688 _0581_
*689 _0582_
*690 _0583_
*691 _0584_
*692 _0585_
*693 _0586_
*694 _0587_
*695 _0588_
*696 _0589_
*697 _0590_
*698 _0591_
*699 _0592_
*700 _0593_
*701 _0594_
*702 _0595_
*703 _0596_
*704 _0597_
*705 _0598_
*706 _0599_
*707 _0600_
*708 _0601_
*709 _0602_
*710 _0603_
*711 _0604_
*712 _0605_
*713 _0606_
*714 _0607_
*715 _0608_
*716 _0609_
*717 _0610_
*718 _0611_
*719 _0612_
*720 _0613_
*721 _0614_
*722 _0615_
*723 _0616_
*724 _0617_
*725 _0618_
*726 _0619_
*727 _0620_
*728 _0621_
*729 _0622_
*730 _0623_
*731 _0624_
*732 _0625_
*733 _0626_
*734 _0627_
*735 _0628_
*736 _0629_
*737 _0630_
*738 _0631_
*739 _0632_
*740 _0633_
*741 _0634_
*742 _0635_
*743 _0636_
*744 _0637_
*745 _0638_
*746 _0639_
*747 _0640_
*748 _0641_
*749 _0642_
*750 _0643_
*751 _0644_
*752 _0645_
*753 _0646_
*754 _0647_
*755 _0648_
*756 _0649_
*757 _0650_
*758 _0651_
*759 _0652_
*760 _0653_
*761 _0654_
*762 _0655_
*763 _0656_
*764 _0657_
*765 _0658_
*766 _0659_
*767 _0660_
*768 _0661_
*769 _0662_
*770 _0663_
*771 _0664_
*772 _0665_
*773 _0666_
*774 _0667_
*775 _0668_
*776 _0669_
*777 _0670_
*778 _0671_
*779 _0672_
*780 _0673_
*781 _0674_
*782 _0675_
*783 _0676_
*784 _0677_
*785 _0678_
*786 _0679_
*787 _0680_
*788 _0681_
*789 _0682_
*790 _0683_
*791 _0684_
*792 _0685_
*793 _0686_
*794 _0687_
*795 _0688_
*796 _0689_
*797 _0690_
*798 _0691_
*799 _0692_
*800 _0693_
*801 _0694_
*802 _0695_
*803 _0696_
*804 _0697_
*805 _0698_
*806 _0699_
*807 _0700_
*808 _0701_
*809 _0702_
*810 _0703_
*811 _0704_
*812 _0705_
*813 _0706_
*814 _0707_
*815 _0708_
*816 _0709_
*817 _0710_
*818 _0711_
*819 _0712_
*820 _0713_
*821 _0714_
*822 _0715_
*823 _0716_
*824 _0717_
*825 _0718_
*826 _0719_
*827 _0720_
*828 _0721_
*829 _0722_
*830 _0723_
*831 _0724_
*832 _0725_
*833 _0726_
*834 _0727_
*835 _0728_
*836 _0729_
*837 _0730_
*838 _0731_
*839 _0732_
*840 _0733_
*841 _0734_
*842 _0735_
*843 _0736_
*844 _0737_
*845 _0738_
*846 _0739_
*847 _0740_
*848 _0741_
*849 _0742_
*850 _0743_
*851 _0744_
*852 _0745_
*853 _0746_
*854 _0747_
*855 _0748_
*856 _0749_
*857 _0750_
*858 _0751_
*859 _0752_
*860 _0753_
*861 _0754_
*862 _0755_
*863 _0756_
*864 _0757_
*865 _0758_
*866 _0759_
*867 _0760_
*868 _0761_
*869 _0762_
*870 _0763_
*871 _0764_
*872 _0765_
*873 _0766_
*874 _0767_
*875 _0768_
*876 _0769_
*877 _0770_
*878 _0771_
*879 _0772_
*880 _0773_
*881 _0774_
*882 _0775_
*883 _0776_
*884 _0777_
*885 _0778_
*886 _0779_
*887 _0780_
*888 _0781_
*889 _0782_
*890 _0783_
*891 _0784_
*892 _0785_
*893 _0786_
*894 _0787_
*895 _0788_
*896 _0789_
*897 _0790_
*898 _0791_
*899 _0792_
*900 _0793_
*901 _0794_
*902 _0795_
*903 _0796_
*904 _0797_
*905 _0798_
*906 _0799_
*907 _0800_
*908 _0801_
*909 _0802_
*910 _0803_
*911 _0804_
*912 _0805_
*913 _0806_
*914 _0807_
*915 _0808_
*916 _0809_
*917 _0810_
*918 _0811_
*919 _0812_
*920 _0813_
*921 _0814_
*922 _0815_
*923 _0816_
*924 _0817_
*925 _0818_
*926 _0819_
*927 _0820_
*928 _0821_
*929 _0822_
*930 _0823_
*931 _0824_
*932 _0825_
*933 _0826_
*934 _0827_
*935 _0828_
*936 _0829_
*937 _0830_
*938 _0831_
*939 _0832_
*940 _0833_
*941 _0834_
*942 _0835_
*943 _0836_
*944 _0837_
*945 _0838_
*946 _0839_
*947 _0840_
*948 _0841_
*949 _0842_
*950 _0843_
*951 _0844_
*952 _0845_
*953 _0846_
*954 _0847_
*955 _0848_
*956 _0849_
*957 _0850_
*958 _0851_
*959 _0852_
*960 _0853_
*961 _0854_
*962 _0855_
*963 _0856_
*964 _0857_
*965 _0858_
*966 _0859_
*967 _0860_
*968 _0861_
*969 _0862_
*970 _0863_
*971 _0864_
*972 _0865_
*973 _0866_
*974 _0867_
*975 _0868_
*976 _0869_
*977 _0870_
*978 _0871_
*979 _0872_
*980 _0873_
*981 _0874_
*982 _0875_
*983 _0876_
*984 _0877_
*985 _0878_
*986 _0879_
*987 _0880_
*988 _0881_
*989 _0882_
*990 _0883_
*991 _0884_
*992 _0885_
*993 _0886_
*994 _0887_
*995 _0888_
*996 _0889_
*997 _0890_
*998 _0891_
*999 _0892_
*1000 _0893_
*1001 _0894_
*1002 _0895_
*1003 _0896_
*1004 _0897_
*1005 _0898_
*1006 _0899_
*1007 _0900_
*1008 _0901_
*1009 _0902_
*1010 _0903_
*1011 _0904_
*1012 _0905_
*1013 _0906_
*1014 _0907_
*1015 _0908_
*1016 _0909_
*1017 _0910_
*1018 _0911_
*1019 _0912_
*1020 _0913_
*1021 _0914_
*1022 _0915_
*1023 _0916_
*1024 _0917_
*1025 _0918_
*1026 _0919_
*1027 _0920_
*1028 _0921_
*1029 _0922_
*1030 _0923_
*1031 _0924_
*1032 _0925_
*1033 _0926_
*1034 _0927_
*1035 _0928_
*1036 _0929_
*1037 _0930_
*1038 _0931_
*1039 _0932_
*1040 _0933_
*1041 _0934_
*1042 _0935_
*1043 _0936_
*1044 _0937_
*1045 _0938_
*1046 _0939_
*1047 _0940_
*1048 _0941_
*1049 _0942_
*1050 _0943_
*1051 _0944_
*1052 _0945_
*1053 _0946_
*1054 clknet_0_clk
*1055 clknet_2_0__leaf_clk
*1056 clknet_2_1__leaf_clk
*1057 clknet_2_2__leaf_clk
*1058 clknet_2_3__leaf_clk
*1059 clknet_leaf_0_clk
*1060 clknet_leaf_10_clk
*1061 clknet_leaf_11_clk
*1062 clknet_leaf_12_clk
*1063 clknet_leaf_13_clk
*1064 clknet_leaf_14_clk
*1065 clknet_leaf_15_clk
*1066 clknet_leaf_16_clk
*1067 clknet_leaf_17_clk
*1068 clknet_leaf_18_clk
*1069 clknet_leaf_19_clk
*1070 clknet_leaf_1_clk
*1071 clknet_leaf_20_clk
*1072 clknet_leaf_21_clk
*1073 clknet_leaf_22_clk
*1074 clknet_leaf_2_clk
*1075 clknet_leaf_3_clk
*1076 clknet_leaf_4_clk
*1077 clknet_leaf_5_clk
*1078 clknet_leaf_6_clk
*1079 clknet_leaf_7_clk
*1080 clknet_leaf_8_clk
*1081 clknet_leaf_9_clk
*1082 delay_chain_inst\.chain_0\[0\]
*1083 delay_chain_inst\.chain_0\[1\]
*1084 delay_chain_inst\.chain_0\[2\]
*1085 delay_chain_inst\.chain_0\[3\]
*1086 delay_chain_inst\.chain_0\[4\]
*1087 delay_chain_inst\.chain_0\[5\]
*1088 delay_chain_inst\.chain_0\[6\]
*1089 delay_chain_inst\.chain_0\[7\]
*1090 delay_chain_inst\.chain_0_done
*1091 delay_chain_inst\.chain_1\[10\]
*1092 delay_chain_inst\.chain_1\[11\]
*1093 delay_chain_inst\.chain_1\[12\]
*1094 delay_chain_inst\.chain_1\[13\]
*1095 delay_chain_inst\.chain_1\[14\]
*1096 delay_chain_inst\.chain_1\[15\]
*1097 delay_chain_inst\.chain_1\[8\]
*1098 delay_chain_inst\.chain_1\[9\]
*1099 delay_chain_inst\.chain_1_done
*1100 delay_chain_inst\.chain_2\[16\]
*1101 delay_chain_inst\.chain_2\[17\]
*1102 delay_chain_inst\.chain_2\[18\]
*1103 delay_chain_inst\.chain_2\[19\]
*1104 delay_chain_inst\.chain_2\[20\]
*1105 delay_chain_inst\.chain_2\[21\]
*1106 delay_chain_inst\.chain_2\[22\]
*1107 delay_chain_inst\.chain_2\[23\]
*1108 delay_chain_inst\.chain_2\[24\]
*1109 delay_chain_inst\.chain_2\[25\]
*1110 delay_chain_inst\.chain_2\[26\]
*1111 delay_chain_inst\.chain_2\[27\]
*1112 delay_chain_inst\.chain_2\[28\]
*1113 delay_chain_inst\.chain_2\[29\]
*1114 delay_chain_inst\.chain_2\[30\]
*1115 delay_chain_inst\.chain_2\[31\]
*1116 delay_chain_inst\.chain_2_done
*1117 delay_chain_inst\.cycle_count\[0\]
*1118 delay_chain_inst\.cycle_count\[10\]
*1119 delay_chain_inst\.cycle_count\[11\]
*1120 delay_chain_inst\.cycle_count\[12\]
*1121 delay_chain_inst\.cycle_count\[13\]
*1122 delay_chain_inst\.cycle_count\[14\]
*1123 delay_chain_inst\.cycle_count\[15\]
*1124 delay_chain_inst\.cycle_count\[1\]
*1125 delay_chain_inst\.cycle_count\[2\]
*1126 delay_chain_inst\.cycle_count\[3\]
*1127 delay_chain_inst\.cycle_count\[4\]
*1128 delay_chain_inst\.cycle_count\[5\]
*1129 delay_chain_inst\.cycle_count\[6\]
*1130 delay_chain_inst\.cycle_count\[7\]
*1131 delay_chain_inst\.cycle_count\[8\]
*1132 delay_chain_inst\.cycle_count\[9\]
*1133 delay_chain_inst\.delay_count_0\[0\]
*1134 delay_chain_inst\.delay_count_0\[10\]
*1135 delay_chain_inst\.delay_count_0\[11\]
*1136 delay_chain_inst\.delay_count_0\[12\]
*1137 delay_chain_inst\.delay_count_0\[13\]
*1138 delay_chain_inst\.delay_count_0\[14\]
*1139 delay_chain_inst\.delay_count_0\[15\]
*1140 delay_chain_inst\.delay_count_0\[1\]
*1141 delay_chain_inst\.delay_count_0\[2\]
*1142 delay_chain_inst\.delay_count_0\[3\]
*1143 delay_chain_inst\.delay_count_0\[4\]
*1144 delay_chain_inst\.delay_count_0\[5\]
*1145 delay_chain_inst\.delay_count_0\[6\]
*1146 delay_chain_inst\.delay_count_0\[7\]
*1147 delay_chain_inst\.delay_count_0\[8\]
*1148 delay_chain_inst\.delay_count_0\[9\]
*1149 delay_chain_inst\.delay_count_1\[0\]
*1150 delay_chain_inst\.delay_count_1\[10\]
*1151 delay_chain_inst\.delay_count_1\[11\]
*1152 delay_chain_inst\.delay_count_1\[12\]
*1153 delay_chain_inst\.delay_count_1\[13\]
*1154 delay_chain_inst\.delay_count_1\[14\]
*1155 delay_chain_inst\.delay_count_1\[15\]
*1156 delay_chain_inst\.delay_count_1\[1\]
*1157 delay_chain_inst\.delay_count_1\[2\]
*1158 delay_chain_inst\.delay_count_1\[3\]
*1159 delay_chain_inst\.delay_count_1\[4\]
*1160 delay_chain_inst\.delay_count_1\[5\]
*1161 delay_chain_inst\.delay_count_1\[6\]
*1162 delay_chain_inst\.delay_count_1\[7\]
*1163 delay_chain_inst\.delay_count_1\[8\]
*1164 delay_chain_inst\.delay_count_1\[9\]
*1165 delay_chain_inst\.delay_count_2\[0\]
*1166 delay_chain_inst\.delay_count_2\[10\]
*1167 delay_chain_inst\.delay_count_2\[11\]
*1168 delay_chain_inst\.delay_count_2\[12\]
*1169 delay_chain_inst\.delay_count_2\[13\]
*1170 delay_chain_inst\.delay_count_2\[14\]
*1171 delay_chain_inst\.delay_count_2\[15\]
*1172 delay_chain_inst\.delay_count_2\[1\]
*1173 delay_chain_inst\.delay_count_2\[2\]
*1174 delay_chain_inst\.delay_count_2\[3\]
*1175 delay_chain_inst\.delay_count_2\[4\]
*1176 delay_chain_inst\.delay_count_2\[5\]
*1177 delay_chain_inst\.delay_count_2\[6\]
*1178 delay_chain_inst\.delay_count_2\[7\]
*1179 delay_chain_inst\.delay_count_2\[8\]
*1180 delay_chain_inst\.delay_count_2\[9\]
*1181 delay_chain_inst\.delay_status\[0\]
*1182 delay_chain_inst\.delay_status\[2\]
*1183 delay_chain_inst\.done
*1184 delay_chain_inst\.measuring
*1185 delay_chain_inst\.start
*1186 delay_chain_inst\.start_prev
*1187 net1
*1188 net10
*1189 net100
*1190 net101
*1191 net102
*1192 net103
*1193 net104
*1194 net105
*1195 net106
*1196 net107
*1197 net108
*1198 net109
*1199 net11
*1200 net110
*1201 net111
*1202 net112
*1203 net113
*1204 net114
*1205 net115
*1206 net116
*1207 net117
*1208 net118
*1209 net119
*1210 net12
*1211 net120
*1212 net121
*1213 net122
*1214 net123
*1215 net124
*1216 net125
*1217 net126
*1218 net127
*1219 net128
*1220 net129
*1221 net13
*1222 net130
*1223 net131
*1224 net132
*1225 net133
*1226 net134
*1227 net135
*1228 net136
*1229 net137
*1230 net138
*1231 net139
*1232 net14
*1233 net140
*1234 net141
*1235 net142
*1236 net143
*1237 net144
*1238 net145
*1239 net146
*1240 net147
*1241 net148
*1242 net149
*1243 net15
*1244 net150
*1245 net151
*1246 net152
*1247 net153
*1248 net154
*1249 net155
*1250 net156
*1251 net157
*1252 net158
*1253 net159
*1254 net16
*1255 net160
*1256 net161
*1257 net162
*1258 net163
*1259 net164
*1260 net165
*1261 net166
*1262 net167
*1263 net168
*1264 net169
*1265 net17
*1266 net170
*1267 net171
*1268 net172
*1269 net173
*1270 net174
*1271 net175
*1272 net176
*1273 net177
*1274 net178
*1275 net179
*1276 net18
*1277 net180
*1278 net181
*1279 net182
*1280 net183
*1281 net184
*1282 net185
*1283 net186
*1284 net187
*1285 net188
*1286 net189
*1287 net19
*1288 net190
*1289 net191
*1290 net192
*1291 net193
*1292 net194
*1293 net195
*1294 net196
*1295 net197
*1296 net198
*1297 net199
*1298 net2
*1299 net20
*1300 net200
*1301 net201
*1302 net202
*1303 net203
*1304 net204
*1305 net205
*1306 net206
*1307 net207
*1308 net208
*1309 net21
*1310 net210
*1311 net211
*1312 net212
*1313 net213
*1314 net214
*1315 net215
*1316 net216
*1317 net217
*1318 net218
*1319 net219
*1320 net22
*1321 net220
*1322 net221
*1323 net222
*1324 net223
*1325 net224
*1326 net225
*1327 net226
*1328 net227
*1329 net228
*1330 net229
*1331 net23
*1332 net230
*1333 net231
*1334 net232
*1335 net233
*1336 net234
*1337 net235
*1338 net236
*1339 net237
*1340 net238
*1341 net239
*1342 net24
*1343 net240
*1344 net241
*1345 net242
*1346 net243
*1347 net244
*1348 net245
*1349 net246
*1350 net247
*1351 net248
*1352 net249
*1353 net25
*1354 net250
*1355 net251
*1356 net252
*1357 net253
*1358 net254
*1359 net255
*1360 net256
*1361 net257
*1362 net258
*1363 net259
*1364 net26
*1365 net260
*1366 net261
*1367 net262
*1368 net263
*1369 net264
*1370 net265
*1371 net266
*1372 net267
*1373 net268
*1374 net269
*1375 net27
*1376 net270
*1377 net271
*1378 net272
*1379 net273
*1380 net274
*1381 net275
*1382 net276
*1383 net277
*1384 net278
*1385 net279
*1386 net28
*1387 net280
*1388 net281
*1389 net282
*1390 net283
*1391 net284
*1392 net285
*1393 net286
*1394 net287
*1395 net288
*1396 net289
*1397 net29
*1398 net290
*1399 net291
*1400 net292
*1401 net293
*1402 net294
*1403 net295
*1404 net296
*1405 net297
*1406 net298
*1407 net299
*1408 net3
*1409 net30
*1410 net300
*1411 net301
*1412 net302
*1413 net303
*1414 net304
*1415 net305
*1416 net306
*1417 net307
*1418 net308
*1419 net309
*1420 net31
*1421 net310
*1422 net311
*1423 net312
*1424 net313
*1425 net314
*1426 net315
*1427 net316
*1428 net317
*1429 net318
*1430 net319
*1431 net32
*1432 net320
*1433 net321
*1434 net322
*1435 net323
*1436 net324
*1437 net325
*1438 net326
*1439 net327
*1440 net328
*1441 net329
*1442 net33
*1443 net330
*1444 net331
*1445 net332
*1446 net333
*1447 net334
*1448 net335
*1449 net336
*1450 net337
*1451 net338
*1452 net339
*1453 net34
*1454 net340
*1455 net341
*1456 net342
*1457 net343
*1458 net344
*1459 net345
*1460 net346
*1461 net347
*1462 net348
*1463 net349
*1464 net35
*1465 net350
*1466 net351
*1467 net352
*1468 net353
*1469 net354
*1470 net355
*1471 net356
*1472 net357
*1473 net358
*1474 net359
*1475 net36
*1476 net360
*1477 net361
*1478 net362
*1479 net363
*1480 net364
*1481 net365
*1482 net366
*1483 net367
*1484 net368
*1485 net369
*1486 net37
*1487 net370
*1488 net371
*1489 net372
*1490 net373
*1491 net374
*1492 net375
*1493 net376
*1494 net377
*1495 net378
*1496 net379
*1497 net38
*1498 net380
*1499 net381
*1500 net382
*1501 net383
*1502 net384
*1503 net385
*1504 net386
*1505 net387
*1506 net388
*1507 net389
*1508 net39
*1509 net390
*1510 net391
*1511 net392
*1512 net393
*1513 net394
*1514 net395
*1515 net396
*1516 net397
*1517 net398
*1518 net399
*1519 net4
*1520 net40
*1521 net400
*1522 net401
*1523 net402
*1524 net403
*1525 net404
*1526 net405
*1527 net406
*1528 net407
*1529 net408
*1530 net409
*1531 net41
*1532 net410
*1533 net411
*1534 net412
*1535 net413
*1536 net414
*1537 net415
*1538 net416
*1539 net417
*1540 net418
*1541 net419
*1542 net42
*1543 net420
*1544 net421
*1545 net422
*1546 net423
*1547 net424
*1548 net425
*1549 net426
*1550 net427
*1551 net428
*1552 net429
*1553 net43
*1554 net430
*1555 net431
*1556 net432
*1557 net433
*1558 net434
*1559 net435
*1560 net436
*1561 net437
*1562 net438
*1563 net439
*1564 net44
*1565 net440
*1566 net441
*1567 net442
*1568 net443
*1569 net444
*1570 net445
*1571 net446
*1572 net447
*1573 net448
*1574 net449
*1575 net45
*1576 net450
*1577 net451
*1578 net452
*1579 net453
*1580 net454
*1581 net455
*1582 net456
*1583 net457
*1584 net458
*1585 net459
*1586 net46
*1587 net460
*1588 net461
*1589 net462
*1590 net463
*1591 net464
*1592 net465
*1593 net466
*1594 net467
*1595 net468
*1596 net469
*1597 net47
*1598 net470
*1599 net471
*1600 net472
*1601 net473
*1602 net474
*1603 net475
*1604 net476
*1605 net477
*1606 net478
*1607 net479
*1608 net48
*1609 net480
*1610 net481
*1611 net482
*1612 net483
*1613 net484
*1614 net485
*1615 net486
*1616 net487
*1617 net488
*1618 net489
*1619 net49
*1620 net490
*1621 net491
*1622 net492
*1623 net493
*1624 net494
*1625 net495
*1626 net496
*1627 net497
*1628 net498
*1629 net499
*1630 net5
*1631 net50
*1632 net500
*1633 net501
*1634 net502
*1635 net503
*1636 net504
*1637 net505
*1638 net506
*1639 net507
*1640 net508
*1641 net509
*1642 net51
*1643 net510
*1644 net511
*1645 net512
*1646 net513
*1647 net514
*1648 net515
*1649 net516
*1650 net517
*1651 net518
*1652 net519
*1653 net52
*1654 net520
*1655 net521
*1656 net522
*1657 net523
*1658 net524
*1659 net525
*1660 net526
*1661 net527
*1662 net528
*1663 net529
*1664 net53
*1665 net530
*1666 net531
*1667 net532
*1668 net533
*1669 net534
*1670 net535
*1671 net536
*1672 net537
*1673 net538
*1674 net539
*1675 net54
*1676 net540
*1677 net541
*1678 net542
*1679 net543
*1680 net544
*1681 net545
*1682 net546
*1683 net547
*1684 net548
*1685 net549
*1686 net55
*1687 net550
*1688 net551
*1689 net552
*1690 net553
*1691 net554
*1692 net555
*1693 net556
*1694 net557
*1695 net558
*1696 net559
*1697 net56
*1698 net560
*1699 net561
*1700 net562
*1701 net563
*1702 net564
*1703 net565
*1704 net566
*1705 net567
*1706 net568
*1707 net569
*1708 net57
*1709 net570
*1710 net571
*1711 net572
*1712 net573
*1713 net574
*1714 net575
*1715 net576
*1716 net577
*1717 net578
*1718 net579
*1719 net58
*1720 net580
*1721 net581
*1722 net582
*1723 net583
*1724 net584
*1725 net585
*1726 net586
*1727 net587
*1728 net588
*1729 net589
*1730 net59
*1731 net590
*1732 net591
*1733 net592
*1734 net593
*1735 net594
*1736 net595
*1737 net596
*1738 net597
*1739 net598
*1740 net599
*1741 net6
*1742 net60
*1743 net600
*1744 net601
*1745 net602
*1746 net603
*1747 net604
*1748 net605
*1749 net606
*1750 net607
*1751 net608
*1752 net609
*1753 net61
*1754 net610
*1755 net611
*1756 net612
*1757 net613
*1758 net614
*1759 net615
*1760 net616
*1761 net617
*1762 net618
*1763 net619
*1764 net62
*1765 net620
*1766 net621
*1767 net622
*1768 net63
*1769 net64
*1770 net65
*1771 net66
*1772 net67
*1773 net68
*1774 net69
*1775 net7
*1776 net70
*1777 net71
*1778 net72
*1779 net73
*1780 net74
*1781 net75
*1782 net76
*1783 net77
*1784 net78
*1785 net79
*1786 net8
*1787 net80
*1788 net81
*1789 net82
*1790 net83
*1791 net84
*1792 net85
*1793 net86
*1794 net87
*1795 net88
*1796 net89
*1797 net9
*1798 net90
*1799 net91
*1800 net92
*1801 net93
*1802 net94
*1803 net95
*1804 net96
*1805 net97
*1806 net98
*1807 net99
*1808 ro_count_0\[0\]
*1809 ro_count_0\[1\]
*1810 ro_count_0\[2\]
*1811 ro_count_0\[3\]
*1812 ro_count_0\[4\]
*1813 ro_count_0\[5\]
*1814 ro_count_0\[6\]
*1815 ro_count_0\[7\]
*1816 ro_count_1\[0\]
*1817 ro_count_1\[1\]
*1818 ro_count_1\[2\]
*1819 ro_count_1\[3\]
*1820 ro_count_1\[4\]
*1821 ro_count_1\[5\]
*1822 ro_count_1\[6\]
*1823 ro_count_1\[7\]
*1824 ro_count_2\[0\]
*1825 ro_count_2\[1\]
*1826 ro_count_2\[2\]
*1827 ro_count_2\[3\]
*1828 ro_count_2\[4\]
*1829 ro_count_2\[5\]
*1830 ro_count_2\[6\]
*1831 ro_count_2\[7\]
*1832 ro_counter_inst\.count_0\[0\]
*1833 ro_counter_inst\.count_0\[1\]
*1834 ro_counter_inst\.count_0\[2\]
*1835 ro_counter_inst\.count_0\[3\]
*1836 ro_counter_inst\.count_0\[4\]
*1837 ro_counter_inst\.count_0\[5\]
*1838 ro_counter_inst\.count_0\[6\]
*1839 ro_counter_inst\.count_0\[7\]
*1840 ro_counter_inst\.count_1\[0\]
*1841 ro_counter_inst\.count_1\[1\]
*1842 ro_counter_inst\.count_1\[2\]
*1843 ro_counter_inst\.count_1\[3\]
*1844 ro_counter_inst\.count_1\[4\]
*1845 ro_counter_inst\.count_1\[5\]
*1846 ro_counter_inst\.count_1\[6\]
*1847 ro_counter_inst\.count_1\[7\]
*1848 ro_counter_inst\.count_2\[0\]
*1849 ro_counter_inst\.count_2\[1\]
*1850 ro_counter_inst\.count_2\[2\]
*1851 ro_counter_inst\.count_2\[3\]
*1852 ro_counter_inst\.count_2\[4\]
*1853 ro_counter_inst\.count_2\[5\]
*1854 ro_counter_inst\.count_2\[6\]
*1855 ro_counter_inst\.count_2\[7\]
*1856 ro_counter_inst\.done
*1857 ro_counter_inst\.fault
*1858 ro_counter_inst\.measurement_window\[0\]
*1859 ro_counter_inst\.measurement_window\[1\]
*1860 ro_counter_inst\.measurement_window\[2\]
*1861 ro_counter_inst\.measurement_window\[3\]
*1862 ro_counter_inst\.measurement_window\[4\]
*1863 ro_counter_inst\.measurement_window\[5\]
*1864 ro_counter_inst\.measurement_window\[6\]
*1865 ro_counter_inst\.measurement_window\[7\]
*1866 ro_counter_inst\.measurement_window\[8\]
*1867 ro_counter_inst\.measurement_window\[9\]
*1868 ro_counter_inst\.measuring
*1869 ro_counter_inst\.prev_rclk_0
*1870 ro_counter_inst\.prev_rclk_1
*1871 ro_counter_inst\.prev_rclk_2
*1872 ro_counter_inst\.start
*1873 ro_counter_inst\.start_prev
*1874 ro_counter_inst\.warning
*1875 start_prev
*1876 state\[1\]
*1877 state\[2\]
*1878 state\[3\]
*1879 state\[4\]
*1880 state\[5\]
*1881 state\[6\]
*1882 ANTENNA_1
*1883 ANTENNA_2
*1884 ANTENNA_3
*1885 FILLER_0_0
*1886 FILLER_0_1001
*1887 FILLER_0_1008
*1888 FILLER_0_1015
*1889 FILLER_0_105
*1890 FILLER_0_112
*1891 FILLER_0_119
*1892 FILLER_0_126
*1893 FILLER_0_133
*1894 FILLER_0_14
*1895 FILLER_0_140
*1896 FILLER_0_147
*1897 FILLER_0_154
*1898 FILLER_0_161
*1899 FILLER_0_168
*1900 FILLER_0_175
*1901 FILLER_0_182
*1902 FILLER_0_189
*1903 FILLER_0_196
*1904 FILLER_0_203
*1905 FILLER_0_21
*1906 FILLER_0_210
*1907 FILLER_0_217
*1908 FILLER_0_224
*1909 FILLER_0_231
*1910 FILLER_0_238
*1911 FILLER_0_245
*1912 FILLER_0_252
*1913 FILLER_0_263
*1914 FILLER_0_270
*1915 FILLER_0_277
*1916 FILLER_0_28
*1917 FILLER_0_284
*1918 FILLER_0_291
*1919 FILLER_0_298
*1920 FILLER_0_305
*1921 FILLER_0_312